McPAT (version 1.2 of June, 2014) is computing the target processor...
 

McPAT (version 1.2 of June, 2014) results (current print level is 2, please increase print level to see the details in components): 
*****************************************************************************************
  Technology 14 nm
  Using Long Channel Devices When Appropriate
  Interconnect metal projection= aggressive interconnect technology projection
  Core clock Rate(MHz) 5000

*****************************************************************************************
Processor: 
  Area = 53.1348 mm^2
  Peak Power = 86.4841 W
  Total Leakage = 10.5981 W
  Peak Dynamic = 75.886 W
  Subthreshold Leakage = 10.5498 W
  Subthreshold Leakage with power gating = 2.55377 W
  Gate Leakage = 0.0482605 W
  Runtime Dynamic = 13.6973 W

  Total Cores: 8 cores 
  Device Type= ITRS high performance device type
    Area = 41.4625 mm^2
    Peak Dynamic = 75.8503 W
    Subthreshold Leakage = 7.73066 W
    Subthreshold Leakage with power gating = 2.54531 W
    Gate Leakage = 0.0453109 W
    Runtime Dynamic = 13.6765 W

  Total L3s: 
  Device Type= ITRS high performance device type
    Area = 11.2428 mm^2
    Peak Dynamic = 0.0356874 W
    Subthreshold Leakage = 2.79177 W
    Subthreshold Leakage with power gating = 0 W
    Gate Leakage = 0.00266973 W
    Runtime Dynamic = 0.0207127 W

  Total NoCs (Network/Bus): 
  Device Type= ITRS high performance device type
    Area = 0.429445 mm^2
    Peak Dynamic = 0 W
    Subthreshold Leakage = 0.0273992 W
    Subthreshold Leakage with power gating = 0.0084546 W
    Gate Leakage = 0.000279904 W
    Runtime Dynamic = 0 W

*****************************************************************************************
Core:
      Area = 5.18282 mm^2
      Peak Dynamic = 19.2913 W
      Subthreshold Leakage = 0.966332 W
      Subthreshold Leakage with power gating = 0.318164 W
      Gate Leakage = 0.00566386 W
      Runtime Dynamic = 7.92933 W

      Instruction Fetch Unit:
        Area = 0.628731 mm^2
        Peak Dynamic = 6.45902 W
        Subthreshold Leakage = 0.16109 W
        Subthreshold Leakage with power gating = 0.0534014 W
        Gate Leakage = 0.00109585 W
        Runtime Dynamic = 0.887028 W

      Renaming Unit:
        Area = 0.0358588 mm^2
        Peak Dynamic = 2.82653 W
        Subthreshold Leakage = 0.0138776 W
        Subthreshold Leakage with power gating = 0.00430511 W
        Gate Leakage = 0.000181197 W
        Runtime Dynamic = 0.237395 W

      Load Store Unit:
        Area = 0.744676 mm^2
        Peak Dynamic = 5.30363 W
        Subthreshold Leakage = 0.111323 W
        Subthreshold Leakage with power gating = 0.0351534 W
        Gate Leakage = 0.000682391 W
        Runtime Dynamic = 2.37868 W

      Memory Management Unit:
        Area = 0.0193766 mm^2
        Peak Dynamic = 0.308532 W
        Subthreshold Leakage = 0.00792451 W
        Subthreshold Leakage with power gating = 0.00244528 W
        Runtime Dynamic = 0.115049 W

      Execution Unit:
        Area = 1.07572 mm^2
        Peak Dynamic = 4.33593 W
        Subthreshold Leakage = 0.166991 W
        Subthreshold Leakage with power gating = 0.0520527 W
        Runtime Dynamic = 4.29192 W

    L2
    Area = 0.524074 mm^2
    Peak Dynamic = 0.0577104 W
    Subthreshold Leakage = 0.228049 W
    Subthreshold Leakage with power gating = 0.0853083 W
    Gate Leakage = 0.000388341 W
    Runtime Dynamic = 0.0192533 W

*****************************************************************************************
Core:
      Area = 5.18282 mm^2
      Peak Dynamic = 8.07985 W
      Subthreshold Leakage = 0.966332 W
      Subthreshold Leakage with power gating = 0.318164 W
      Gate Leakage = 0.00566386 W
      Runtime Dynamic = 0.821031 W

      Instruction Fetch Unit:
        Area = 0.628731 mm^2
        Peak Dynamic = 1.07871 W
        Subthreshold Leakage = 0.16109 W
        Subthreshold Leakage with power gating = 0.0534014 W
        Gate Leakage = 0.00109585 W
        Runtime Dynamic = 0 W

      Renaming Unit:
        Area = 0.0358588 mm^2
        Peak Dynamic = 2.82653 W
        Subthreshold Leakage = 0.0138776 W
        Subthreshold Leakage with power gating = 0.00430511 W
        Gate Leakage = 0.000181197 W
        Runtime Dynamic = 0 W

      Load Store Unit:
        Area = 0.744676 mm^2
        Peak Dynamic = 0.849714 W
        Subthreshold Leakage = 0.111323 W
        Subthreshold Leakage with power gating = 0.0351534 W
        Gate Leakage = 0.000682391 W
        Runtime Dynamic = 0 W

      Memory Management Unit:
        Area = 0.0193766 mm^2
        Peak Dynamic = 0.0753518 W
        Subthreshold Leakage = 0.00792451 W
        Subthreshold Leakage with power gating = 0.00244528 W
        Runtime Dynamic = 0 W

      Execution Unit:
        Area = 1.07572 mm^2
        Peak Dynamic = 3.24954 W
        Subthreshold Leakage = 0.166991 W
        Subthreshold Leakage with power gating = 0.0520527 W
        Runtime Dynamic = 0.821031 W

    L2
    Area = 0.524074 mm^2
    Peak Dynamic = 0 W
    Subthreshold Leakage = 0.228049 W
    Subthreshold Leakage with power gating = 0.0853083 W
    Gate Leakage = 0.000388341 W
    Runtime Dynamic = 0 W

*****************************************************************************************
Core:
      Area = 5.18282 mm^2
      Peak Dynamic = 8.07985 W
      Subthreshold Leakage = 0.966332 W
      Subthreshold Leakage with power gating = 0.318164 W
      Gate Leakage = 0.00566386 W
      Runtime Dynamic = 0.821031 W

      Instruction Fetch Unit:
        Area = 0.628731 mm^2
        Peak Dynamic = 1.07871 W
        Subthreshold Leakage = 0.16109 W
        Subthreshold Leakage with power gating = 0.0534014 W
        Gate Leakage = 0.00109585 W
        Runtime Dynamic = 0 W

      Renaming Unit:
        Area = 0.0358588 mm^2
        Peak Dynamic = 2.82653 W
        Subthreshold Leakage = 0.0138776 W
        Subthreshold Leakage with power gating = 0.00430511 W
        Gate Leakage = 0.000181197 W
        Runtime Dynamic = 0 W

      Load Store Unit:
        Area = 0.744676 mm^2
        Peak Dynamic = 0.849714 W
        Subthreshold Leakage = 0.111323 W
        Subthreshold Leakage with power gating = 0.0351534 W
        Gate Leakage = 0.000682391 W
        Runtime Dynamic = 0 W

      Memory Management Unit:
        Area = 0.0193766 mm^2
        Peak Dynamic = 0.0753518 W
        Subthreshold Leakage = 0.00792451 W
        Subthreshold Leakage with power gating = 0.00244528 W
        Runtime Dynamic = 0 W

      Execution Unit:
        Area = 1.07572 mm^2
        Peak Dynamic = 3.24954 W
        Subthreshold Leakage = 0.166991 W
        Subthreshold Leakage with power gating = 0.0520527 W
        Runtime Dynamic = 0.821031 W

    L2
    Area = 0.524074 mm^2
    Peak Dynamic = 0 W
    Subthreshold Leakage = 0.228049 W
    Subthreshold Leakage with power gating = 0.0853083 W
    Gate Leakage = 0.000388341 W
    Runtime Dynamic = 0 W

*****************************************************************************************
Core:
      Area = 5.18282 mm^2
      Peak Dynamic = 8.07985 W
      Subthreshold Leakage = 0.966332 W
      Subthreshold Leakage with power gating = 0.318164 W
      Gate Leakage = 0.00566386 W
      Runtime Dynamic = 0.821031 W

      Instruction Fetch Unit:
        Area = 0.628731 mm^2
        Peak Dynamic = 1.07871 W
        Subthreshold Leakage = 0.16109 W
        Subthreshold Leakage with power gating = 0.0534014 W
        Gate Leakage = 0.00109585 W
        Runtime Dynamic = 0 W

      Renaming Unit:
        Area = 0.0358588 mm^2
        Peak Dynamic = 2.82653 W
        Subthreshold Leakage = 0.0138776 W
        Subthreshold Leakage with power gating = 0.00430511 W
        Gate Leakage = 0.000181197 W
        Runtime Dynamic = 0 W

      Load Store Unit:
        Area = 0.744676 mm^2
        Peak Dynamic = 0.849714 W
        Subthreshold Leakage = 0.111323 W
        Subthreshold Leakage with power gating = 0.0351534 W
        Gate Leakage = 0.000682391 W
        Runtime Dynamic = 0 W

      Memory Management Unit:
        Area = 0.0193766 mm^2
        Peak Dynamic = 0.0753518 W
        Subthreshold Leakage = 0.00792451 W
        Subthreshold Leakage with power gating = 0.00244528 W
        Runtime Dynamic = 0 W

      Execution Unit:
        Area = 1.07572 mm^2
        Peak Dynamic = 3.24954 W
        Subthreshold Leakage = 0.166991 W
        Subthreshold Leakage with power gating = 0.0520527 W
        Runtime Dynamic = 0.821031 W

    L2
    Area = 0.524074 mm^2
    Peak Dynamic = 0 W
    Subthreshold Leakage = 0.228049 W
    Subthreshold Leakage with power gating = 0.0853083 W
    Gate Leakage = 0.000388341 W
    Runtime Dynamic = 0 W

*****************************************************************************************
Core:
      Area = 5.18282 mm^2
      Peak Dynamic = 8.07985 W
      Subthreshold Leakage = 0.966332 W
      Subthreshold Leakage with power gating = 0.318164 W
      Gate Leakage = 0.00566386 W
      Runtime Dynamic = 0.821031 W

      Instruction Fetch Unit:
        Area = 0.628731 mm^2
        Peak Dynamic = 1.07871 W
        Subthreshold Leakage = 0.16109 W
        Subthreshold Leakage with power gating = 0.0534014 W
        Gate Leakage = 0.00109585 W
        Runtime Dynamic = 0 W

      Renaming Unit:
        Area = 0.0358588 mm^2
        Peak Dynamic = 2.82653 W
        Subthreshold Leakage = 0.0138776 W
        Subthreshold Leakage with power gating = 0.00430511 W
        Gate Leakage = 0.000181197 W
        Runtime Dynamic = 0 W

      Load Store Unit:
        Area = 0.744676 mm^2
        Peak Dynamic = 0.849714 W
        Subthreshold Leakage = 0.111323 W
        Subthreshold Leakage with power gating = 0.0351534 W
        Gate Leakage = 0.000682391 W
        Runtime Dynamic = 0 W

      Memory Management Unit:
        Area = 0.0193766 mm^2
        Peak Dynamic = 0.0753518 W
        Subthreshold Leakage = 0.00792451 W
        Subthreshold Leakage with power gating = 0.00244528 W
        Runtime Dynamic = 0 W

      Execution Unit:
        Area = 1.07572 mm^2
        Peak Dynamic = 3.24954 W
        Subthreshold Leakage = 0.166991 W
        Subthreshold Leakage with power gating = 0.0520527 W
        Runtime Dynamic = 0.821031 W

    L2
    Area = 0.524074 mm^2
    Peak Dynamic = 0 W
    Subthreshold Leakage = 0.228049 W
    Subthreshold Leakage with power gating = 0.0853083 W
    Gate Leakage = 0.000388341 W
    Runtime Dynamic = 0 W

*****************************************************************************************
Core:
      Area = 5.18282 mm^2
      Peak Dynamic = 8.07985 W
      Subthreshold Leakage = 0.966332 W
      Subthreshold Leakage with power gating = 0.318164 W
      Gate Leakage = 0.00566386 W
      Runtime Dynamic = 0.821031 W

      Instruction Fetch Unit:
        Area = 0.628731 mm^2
        Peak Dynamic = 1.07871 W
        Subthreshold Leakage = 0.16109 W
        Subthreshold Leakage with power gating = 0.0534014 W
        Gate Leakage = 0.00109585 W
        Runtime Dynamic = 0 W

      Renaming Unit:
        Area = 0.0358588 mm^2
        Peak Dynamic = 2.82653 W
        Subthreshold Leakage = 0.0138776 W
        Subthreshold Leakage with power gating = 0.00430511 W
        Gate Leakage = 0.000181197 W
        Runtime Dynamic = 0 W

      Load Store Unit:
        Area = 0.744676 mm^2
        Peak Dynamic = 0.849714 W
        Subthreshold Leakage = 0.111323 W
        Subthreshold Leakage with power gating = 0.0351534 W
        Gate Leakage = 0.000682391 W
        Runtime Dynamic = 0 W

      Memory Management Unit:
        Area = 0.0193766 mm^2
        Peak Dynamic = 0.0753518 W
        Subthreshold Leakage = 0.00792451 W
        Subthreshold Leakage with power gating = 0.00244528 W
        Runtime Dynamic = 0 W

      Execution Unit:
        Area = 1.07572 mm^2
        Peak Dynamic = 3.24954 W
        Subthreshold Leakage = 0.166991 W
        Subthreshold Leakage with power gating = 0.0520527 W
        Runtime Dynamic = 0.821031 W

    L2
    Area = 0.524074 mm^2
    Peak Dynamic = 0 W
    Subthreshold Leakage = 0.228049 W
    Subthreshold Leakage with power gating = 0.0853083 W
    Gate Leakage = 0.000388341 W
    Runtime Dynamic = 0 W

*****************************************************************************************
Core:
      Area = 5.18282 mm^2
      Peak Dynamic = 8.07985 W
      Subthreshold Leakage = 0.966332 W
      Subthreshold Leakage with power gating = 0.318164 W
      Gate Leakage = 0.00566386 W
      Runtime Dynamic = 0.821031 W

      Instruction Fetch Unit:
        Area = 0.628731 mm^2
        Peak Dynamic = 1.07871 W
        Subthreshold Leakage = 0.16109 W
        Subthreshold Leakage with power gating = 0.0534014 W
        Gate Leakage = 0.00109585 W
        Runtime Dynamic = 0 W

      Renaming Unit:
        Area = 0.0358588 mm^2
        Peak Dynamic = 2.82653 W
        Subthreshold Leakage = 0.0138776 W
        Subthreshold Leakage with power gating = 0.00430511 W
        Gate Leakage = 0.000181197 W
        Runtime Dynamic = 0 W

      Load Store Unit:
        Area = 0.744676 mm^2
        Peak Dynamic = 0.849714 W
        Subthreshold Leakage = 0.111323 W
        Subthreshold Leakage with power gating = 0.0351534 W
        Gate Leakage = 0.000682391 W
        Runtime Dynamic = 0 W

      Memory Management Unit:
        Area = 0.0193766 mm^2
        Peak Dynamic = 0.0753518 W
        Subthreshold Leakage = 0.00792451 W
        Subthreshold Leakage with power gating = 0.00244528 W
        Runtime Dynamic = 0 W

      Execution Unit:
        Area = 1.07572 mm^2
        Peak Dynamic = 3.24954 W
        Subthreshold Leakage = 0.166991 W
        Subthreshold Leakage with power gating = 0.0520527 W
        Runtime Dynamic = 0.821031 W

    L2
    Area = 0.524074 mm^2
    Peak Dynamic = 0 W
    Subthreshold Leakage = 0.228049 W
    Subthreshold Leakage with power gating = 0.0853083 W
    Gate Leakage = 0.000388341 W
    Runtime Dynamic = 0 W

*****************************************************************************************
Core:
      Area = 5.18282 mm^2
      Peak Dynamic = 8.07985 W
      Subthreshold Leakage = 0.966332 W
      Subthreshold Leakage with power gating = 0.318164 W
      Gate Leakage = 0.00566386 W
      Runtime Dynamic = 0.821031 W

      Instruction Fetch Unit:
        Area = 0.628731 mm^2
        Peak Dynamic = 1.07871 W
        Subthreshold Leakage = 0.16109 W
        Subthreshold Leakage with power gating = 0.0534014 W
        Gate Leakage = 0.00109585 W
        Runtime Dynamic = 0 W

      Renaming Unit:
        Area = 0.0358588 mm^2
        Peak Dynamic = 2.82653 W
        Subthreshold Leakage = 0.0138776 W
        Subthreshold Leakage with power gating = 0.00430511 W
        Gate Leakage = 0.000181197 W
        Runtime Dynamic = 0 W

      Load Store Unit:
        Area = 0.744676 mm^2
        Peak Dynamic = 0.849714 W
        Subthreshold Leakage = 0.111323 W
        Subthreshold Leakage with power gating = 0.0351534 W
        Gate Leakage = 0.000682391 W
        Runtime Dynamic = 0 W

      Memory Management Unit:
        Area = 0.0193766 mm^2
        Peak Dynamic = 0.0753518 W
        Subthreshold Leakage = 0.00792451 W
        Subthreshold Leakage with power gating = 0.00244528 W
        Runtime Dynamic = 0 W

      Execution Unit:
        Area = 1.07572 mm^2
        Peak Dynamic = 3.24954 W
        Subthreshold Leakage = 0.166991 W
        Subthreshold Leakage with power gating = 0.0520527 W
        Runtime Dynamic = 0.821031 W

    L2
    Area = 0.524074 mm^2
    Peak Dynamic = 0 W
    Subthreshold Leakage = 0.228049 W
    Subthreshold Leakage with power gating = 0.0853083 W
    Gate Leakage = 0.000388341 W
    Runtime Dynamic = 0 W

*****************************************************************************************
      L3
      Area = 2.81071 mm^2
      Peak Dynamic = 0.0356874 W
      Subthreshold Leakage = 0.697942 W
      Subthreshold Leakage with power gating = 0 W
      Gate Leakage = 0.000667432 W
      Runtime Dynamic = 0.0207127 W

*****************************************************************************************
      L3
      Area = 2.81071 mm^2
      Peak Dynamic = 0 W
      Subthreshold Leakage = 0.697942 W
      Subthreshold Leakage with power gating = 0 W
      Gate Leakage = 0.000667432 W
      Runtime Dynamic = 0 W

*****************************************************************************************
      L3
      Area = 2.81071 mm^2
      Peak Dynamic = 0 W
      Subthreshold Leakage = 0.697942 W
      Subthreshold Leakage with power gating = 0 W
      Gate Leakage = 0.000667432 W
      Runtime Dynamic = 0 W

*****************************************************************************************
      L3
      Area = 2.81071 mm^2
      Peak Dynamic = 0 W
      Subthreshold Leakage = 0.697942 W
      Subthreshold Leakage with power gating = 0 W
      Gate Leakage = 0.000667432 W
      Runtime Dynamic = 0 W

*****************************************************************************************
BUSES
      Area = 0.429445 mm^2
      Peak Dynamic = 0 W
      Subthreshold Leakage = 0.0273992 W
      Subthreshold Leakage with power gating = 0.0084546 W
      Gate Leakage = 0.000279904 W
      Runtime Dynamic = 0 W

      Bus: 
        Area = 0.429445 mm^2
        Peak Dynamic = 0 W
        Subthreshold Leakage = 0.0273992 W
        Subthreshold Leakage with power gating = 0.0084546 W
        Gate Leakage = 0.000279904 W
        Runtime Dynamic = 0 W

*****************************************************************************************
