McPAT (version 1.2 of June, 2014) is computing the target processor...
 

McPAT (version 1.2 of June, 2014) results  (current print level is 5)
*****************************************************************************************
  Technology 14 nm
  Using Long Channel Devices When Appropriate
  Interconnect metal projection= aggressive interconnect technology projection
  Core clock Rate(MHz) 5000

*****************************************************************************************
Processor: 
  Area = 53.1348 mm^2
  Peak Power = 107.534 W
  Total Leakage = 33.456 W
  Peak Dynamic = 74.0778 W
  Subthreshold Leakage = 33.4078 W
  Subthreshold Leakage with power gating = 9.99761 W
  Gate Leakage = 0.0482605 W
  Runtime Dynamic = 11.7176 W

  Total Cores: 8 cores 
  Device Type= ITRS high performance device type
    Area = 41.4625 mm^2
    Peak Dynamic = 74.037 W
    Subthreshold Leakage = 24.4804 W
    Subthreshold Leakage with power gating = 9.96414 W
    Gate Leakage = 0.0453109 W
    Runtime Dynamic = 11.6967 W

  Total L3s: 
  Device Type= ITRS high performance device type
    Area = 11.2428 mm^2
    Peak Dynamic = 0.040789 W
    Subthreshold Leakage = 8.8406 W
    Subthreshold Leakage with power gating = 0 W
    Gate Leakage = 0.00266973 W
    Runtime Dynamic = 0.0209193 W

  Total NoCs (Network/Bus): 
  Device Type= ITRS high performance device type
    Area = 0.429445 mm^2
    Peak Dynamic = 0 W
    Subthreshold Leakage = 0.086764 W
    Subthreshold Leakage with power gating = 0.0334661 W
    Gate Leakage = 0.000279904 W
    Runtime Dynamic = 0 W

*****************************************************************************************
Core:
      Area = 5.18282 mm^2
      Peak Dynamic = 17.4781 W
      Subthreshold Leakage = 3.06005 W
      Subthreshold Leakage with power gating = 1.24552 W
      Gate Leakage = 0.00566386 W
      Runtime Dynamic = 5.94947 W

      Instruction Fetch Unit:
        Area = 0.628731 mm^2
        Peak Dynamic = 6.45902 W
        Subthreshold Leakage = 0.510119 W
        Subthreshold Leakage with power gating = 0.207927 W
        Gate Leakage = 0.00109585 W
        Runtime Dynamic = 0.8501 W

          Instruction Cache:
            Area = 0.375083 mm^2
            Peak Dynamic = 5.2296 W
            Subthreshold Leakage = 0.236299 W
            Subthreshold Leakage with power gating = 0.094033 W
            Gate Leakage = 0.000609093 W
            Runtime Dynamic = 0.533937 W

          Branch Target Buffer:
            Area = 0.0619963 mm^2
            Peak Dynamic = 0.101504 W
            Subthreshold Leakage = 0.042998 W
            Subthreshold Leakage with power gating = 0.0231987 W
            Gate Leakage = 5.00812e-05 W
            Runtime Dynamic = 0.0318227 W

          Branch Predictor:
            Area = 0.0124614 mm^2
            Peak Dynamic = 0.0364821 W
            Subthreshold Leakage = 0.0121619 W
            Subthreshold Leakage with power gating = 0.0062927 W
            Gate Leakage = 1.63868e-05 W
            Runtime Dynamic = 0.0117233 W

              Global Predictor:
                Area = 0.00400492 mm^2
                Peak Dynamic = 0.00900409 W
                Subthreshold Leakage = 0.00413566 W
                Subthreshold Leakage with power gating = 0.0021532 W
                Gate Leakage = 5.27177e-06 W
                Runtime Dynamic = 0.00314878 W

              Local Predictor:
              L1_Local Predictor:
                Area = 0.00228296 mm^2
                Peak Dynamic = 0.00769167 W
                Subthreshold Leakage = 0.00210304 W
                Subthreshold Leakage with power gating = 0.00108983 W
                Gate Leakage = 2.98326e-06 W
                Runtime Dynamic = 0.00279251 W

              L2_Local Predictor:
                Area = 0.00115846 mm^2
                Peak Dynamic = 0.00383542 W
                Subthreshold Leakage = 0.00115997 W
                Subthreshold Leakage with power gating = 0.000586761 W
                Gate Leakage = 1.82131e-06 W
                Runtime Dynamic = 0.00139248 W

              Chooser:
                Area = 0.00400492 mm^2
                Peak Dynamic = 0.00900409 W
                Subthreshold Leakage = 0.00413566 W
                Subthreshold Leakage with power gating = 0.0021532 W
                Gate Leakage = 5.27177e-06 W
                Runtime Dynamic = 0.00314878 W

              RAS:
                Area = 0.00101017 mm^2
                Peak Dynamic = 0.00694686 W
                Subthreshold Leakage = 0.000627592 W
                Subthreshold Leakage with power gating = 0.000309712 W
                Gate Leakage = 1.03873e-06 W
                Runtime Dynamic = 0.00124075 W

          Instruction Buffer:
            Area = 0.00178925 mm^2
            Peak Dynamic = 0.386362 W
            Subthreshold Leakage = 0.000878138 W
            Subthreshold Leakage with power gating = 0.000400367 W
            Gate Leakage = 1.43848e-06 W
            Runtime Dynamic = 0.0864836 W

          Instruction Decoder:
            Area = 0.17304 mm^2
            Peak Dynamic = 0.554361 W
            Subthreshold Leakage = 0.207179 W
            Subthreshold Leakage with power gating = 0.0799117 W
            Gate Leakage = 0.000358204 W
            Runtime Dynamic = 0.186133 W

      Renaming Unit:
        Area = 0.0358588 mm^2
        Peak Dynamic = 2.82653 W
        Subthreshold Leakage = 0.0439459 W
        Subthreshold Leakage with power gating = 0.017011 W
        Gate Leakage = 0.000181197 W
        Runtime Dynamic = 0.166179 W

          Int Front End RAT:
            Area = 0.0112201 mm^2
            Peak Dynamic = 0.479122 W
            Subthreshold Leakage = 0.00369248 W
            Subthreshold Leakage with power gating = 0.00142424 W
            Gate Leakage = 7.9817e-06 W
            Runtime Dynamic = 0.15017 W

          FP Front End RAT:
            Area = 0.0163078 mm^2
            Peak Dynamic = 2.17289 W
            Subthreshold Leakage = 0.0292898 W
            Subthreshold Leakage with power gating = 0.0112975 W
            Gate Leakage = 0.000111844 W
            Runtime Dynamic = 1.85619e-05 W

          Free List:
            Area = 0.00397008 mm^2
            Peak Dynamic = 0.0238114 W
            Subthreshold Leakage = 0.000359861 W
            Subthreshold Leakage with power gating = 0.000199256 W
            Gate Leakage = 7.26665e-07 W
            Runtime Dynamic = 0.0159901 W

      Load Store Unit:
        Area = 0.744676 mm^2
        Peak Dynamic = 3.82184 W
        Subthreshold Leakage = 0.352523 W
        Subthreshold Leakage with power gating = 0.138572 W
        Gate Leakage = 0.000682391 W
        Runtime Dynamic = 1.61888 W

          Data Cache:
            Area = 0.654623 mm^2
            Peak Dynamic = 3.54889 W
            Subthreshold Leakage = 0.327855 W
            Subthreshold Leakage with power gating = 0.129057 W
            Gate Leakage = 0.000591759 W
            Runtime Dynamic = 1.31518 W

          LoadQ:
            Area = 0.00838428 mm^2
            Peak Dynamic = 0.0851867 W
            Subthreshold Leakage = 0.00593925 W
            Subthreshold Leakage with power gating = 0.00229085 W
            Gate Leakage = 1.30623e-05 W
            Runtime Dynamic = 0.0851867 W

          StoreQ:
            Area = 0.0100066 mm^2
            Peak Dynamic = 0.10926 W
            Subthreshold Leakage = 0.0081244 W
            Subthreshold Leakage with power gating = 0.0031337 W
            Gate Leakage = 1.69241e-05 W
            Runtime Dynamic = 0.21852 W

      Memory Management Unit:
        Area = 0.0193766 mm^2
        Peak Dynamic = 0.255513 W
        Subthreshold Leakage = 0.0250943 W
        Subthreshold Leakage with power gating = 0.00967922 W
        Runtime Dynamic = 0.0831936 W

          Itlb:
            Area = 0.00619987 mm^2
            Peak Dynamic = 0.0738169 W
            Subthreshold Leakage = 0.00560668 W
            Subthreshold Leakage with power gating = 0.00216258 W
            Gate Leakage = 1.15098e-05 W
            Runtime Dynamic = 0.0151332 W

          Dtlb:
            Area = 0.00881592 mm^2
            Peak Dynamic = 0.0670896 W
            Subthreshold Leakage = 0.00888389 W
            Subthreshold Leakage with power gating = 0.00342664 W
            Gate Leakage = 1.76459e-05 W
            Runtime Dynamic = 0.0680605 W

      Execution Unit:
        Area = 1.07572 mm^2
        Peak Dynamic = 4.02535 W
        Subthreshold Leakage = 0.528804 W
        Subthreshold Leakage with power gating = 0.205323 W
        Runtime Dynamic = 3.20678 W

          Register Files:
            Area = 0.0533252 mm^2
            Peak Dynamic = 0.0927795 W
            Subthreshold Leakage = 0.00661458 W
            Subthreshold Leakage with power gating = 0.0027406 W
            Gate Leakage = 1.40736e-05 W
            Runtime Dynamic = 0.107375 W

              Integer RF:
                Area = 0.0334906 mm^2
                Peak Dynamic = 0.0927742 W
                Subthreshold Leakage = 0.00403731 W
                Subthreshold Leakage with power gating = 0.00163574 W
                Gate Leakage = 8.8989e-06 W
                Runtime Dynamic = 0.0948794 W

              Floating Point RF:
                Area = 0.0198346 mm^2
                Peak Dynamic = 5.3146e-06 W
                Subthreshold Leakage = 0.00257727 W
                Subthreshold Leakage with power gating = 0.00110486 W
                Gate Leakage = 5.17467e-06 W
                Runtime Dynamic = 0.0124961 W

          Instruction Scheduler:
            Area = 0.215607 mm^2
            Peak Dynamic = 3.24954 W
            Subthreshold Leakage = 0.076717 W
            Subthreshold Leakage with power gating = 0.0307572 W
            Gate Leakage = 0.000169243 W
            Runtime Dynamic = 1.35302 W

              Instruction Window:
                Area = 0.10145 mm^2
                Peak Dynamic = 1.39363 W
                Subthreshold Leakage = 0.0546082 W
                Subthreshold Leakage with power gating = 0.0210632 W
                Gate Leakage = 0.000124322 W
                Runtime Dynamic = 0.612553 W

              FP Instruction Window:
                Area = 0.0325066 mm^2
                Peak Dynamic = 0.817568 W
                Subthreshold Leakage = 0.011568 W
                Subthreshold Leakage with power gating = 0.00446193 W
                Gate Leakage = 2.68689e-05 W
                Runtime Dynamic = 0.357265 W

              ROB:
                Area = 0.0816501 mm^2
                Peak Dynamic = 1.03834 W
                Subthreshold Leakage = 0.0105408 W
                Subthreshold Leakage with power gating = 0.00523211 W
                Gate Leakage = 1.80525e-05 W
                Runtime Dynamic = 0.383202 W

          Integer ALUs (Count: 6 ):
            Area = 0.230726 mm^2
            Peak Dynamic = 0.424064 W
            Subthreshold Leakage = 0.187935 W
            Subthreshold Leakage with power gating = 0.0724893 W
            Gate Leakage = 0.000427106 W
            Runtime Dynamic = 0.477441 W

          Floating Point Units (FPUs) (Count: 2 ):
            Area = 0.450897 mm^2
            Peak Dynamic = 3.68592e-05 W
            Subthreshold Leakage = 0.091818 W
            Subthreshold Leakage with power gating = 0.0354155 W
            Gate Leakage = 0.000208668 W
            Runtime Dynamic = 0.41053 W

          Complex ALUs (Mul/Div) (Count: 1 ):
            Area = 0.115363 mm^2
            Peak Dynamic = 1.03148e-05 W
            Subthreshold Leakage = 0.0939676 W
            Subthreshold Leakage with power gating = 0.0362446 W
            Gate Leakage = 0.000213553 W
            Runtime Dynamic = 0.273684 W

          Results Broadcast Bus:
            Area Overhead = 0.00543891 mm^2
            Peak Dynamic = 0.225182 W
            Subthreshold Leakage = 0.0611485 W
            Subthreshold Leakage with power gating = 0.0235859 W
            Gate Leakage = 0.000138968 W
            Runtime Dynamic = 0.584728 W

    L2
    Area = 0.524074 mm^2
    Peak Dynamic = 0.089839 W
    Subthreshold Leakage = 0.722154 W
    Subthreshold Leakage with power gating = 0.328576 W
    Gate Leakage = 0.000388341 W
    Runtime Dynamic = 0.0243418 W

*****************************************************************************************
Core:
      Area = 5.18282 mm^2
      Peak Dynamic = 8.07985 W
      Subthreshold Leakage = 3.06005 W
      Subthreshold Leakage with power gating = 1.24552 W
      Gate Leakage = 0.00566386 W
      Runtime Dynamic = 0.821031 W

      Instruction Fetch Unit:
        Area = 0.628731 mm^2
        Peak Dynamic = 1.07871 W
        Subthreshold Leakage = 0.510119 W
        Subthreshold Leakage with power gating = 0.207927 W
        Gate Leakage = 0.00109585 W
        Runtime Dynamic = 0 W

          Instruction Cache:
            Area = 0.375083 mm^2
            Peak Dynamic = 0 W
            Subthreshold Leakage = 0.236299 W
            Subthreshold Leakage with power gating = 0.094033 W
            Gate Leakage = 0.000609093 W
            Runtime Dynamic = 0 W

          Branch Target Buffer:
            Area = 0.0619963 mm^2
            Peak Dynamic = 0.101504 W
            Subthreshold Leakage = 0.042998 W
            Subthreshold Leakage with power gating = 0.0231987 W
            Gate Leakage = 5.00812e-05 W
            Runtime Dynamic = 0 W

          Branch Predictor:
            Area = 0.0124614 mm^2
            Peak Dynamic = 0.0364821 W
            Subthreshold Leakage = 0.0121619 W
            Subthreshold Leakage with power gating = 0.0062927 W
            Gate Leakage = 1.63868e-05 W
            Runtime Dynamic = 0 W

              Global Predictor:
                Area = 0.00400492 mm^2
                Peak Dynamic = 0.00900409 W
                Subthreshold Leakage = 0.00413566 W
                Subthreshold Leakage with power gating = 0.0021532 W
                Gate Leakage = 5.27177e-06 W
                Runtime Dynamic = 0 W

              Local Predictor:
              L1_Local Predictor:
                Area = 0.00228296 mm^2
                Peak Dynamic = 0.00769167 W
                Subthreshold Leakage = 0.00210304 W
                Subthreshold Leakage with power gating = 0.00108983 W
                Gate Leakage = 2.98326e-06 W
                Runtime Dynamic = 0 W

              L2_Local Predictor:
                Area = 0.00115846 mm^2
                Peak Dynamic = 0.00383542 W
                Subthreshold Leakage = 0.00115997 W
                Subthreshold Leakage with power gating = 0.000586761 W
                Gate Leakage = 1.82131e-06 W
                Runtime Dynamic = 0 W

              Chooser:
                Area = 0.00400492 mm^2
                Peak Dynamic = 0.00900409 W
                Subthreshold Leakage = 0.00413566 W
                Subthreshold Leakage with power gating = 0.0021532 W
                Gate Leakage = 5.27177e-06 W
                Runtime Dynamic = 0 W

              RAS:
                Area = 0.00101017 mm^2
                Peak Dynamic = 0.00694686 W
                Subthreshold Leakage = 0.000627592 W
                Subthreshold Leakage with power gating = 0.000309712 W
                Gate Leakage = 1.03873e-06 W
                Runtime Dynamic = 0 W

          Instruction Buffer:
            Area = 0.00178925 mm^2
            Peak Dynamic = 0.386362 W
            Subthreshold Leakage = 0.000878138 W
            Subthreshold Leakage with power gating = 0.000400367 W
            Gate Leakage = 1.43848e-06 W
            Runtime Dynamic = 0 W

          Instruction Decoder:
            Area = 0.17304 mm^2
            Peak Dynamic = 0.554361 W
            Subthreshold Leakage = 0.207179 W
            Subthreshold Leakage with power gating = 0.0799117 W
            Gate Leakage = 0.000358204 W
            Runtime Dynamic = 0 W

      Renaming Unit:
        Area = 0.0358588 mm^2
        Peak Dynamic = 2.82653 W
        Subthreshold Leakage = 0.0439459 W
        Subthreshold Leakage with power gating = 0.017011 W
        Gate Leakage = 0.000181197 W
        Runtime Dynamic = 0 W

          Int Front End RAT:
            Area = 0.0112201 mm^2
            Peak Dynamic = 0.479122 W
            Subthreshold Leakage = 0.00369248 W
            Subthreshold Leakage with power gating = 0.00142424 W
            Gate Leakage = 7.9817e-06 W
            Runtime Dynamic = 0 W

          FP Front End RAT:
            Area = 0.0163078 mm^2
            Peak Dynamic = 2.17289 W
            Subthreshold Leakage = 0.0292898 W
            Subthreshold Leakage with power gating = 0.0112975 W
            Gate Leakage = 0.000111844 W
            Runtime Dynamic = 0 W

          Free List:
            Area = 0.00397008 mm^2
            Peak Dynamic = 0.0238114 W
            Subthreshold Leakage = 0.000359861 W
            Subthreshold Leakage with power gating = 0.000199256 W
            Gate Leakage = 7.26665e-07 W
            Runtime Dynamic = 0 W

      Load Store Unit:
        Area = 0.744676 mm^2
        Peak Dynamic = 0.849714 W
        Subthreshold Leakage = 0.352523 W
        Subthreshold Leakage with power gating = 0.138572 W
        Gate Leakage = 0.000682391 W
        Runtime Dynamic = 0 W

          Data Cache:
            Area = 0.654623 mm^2
            Peak Dynamic = 0.849714 W
            Subthreshold Leakage = 0.327855 W
            Subthreshold Leakage with power gating = 0.129057 W
            Gate Leakage = 0.000591759 W
            Runtime Dynamic = 0 W

          LoadQ:
            Area = 0.00838428 mm^2
            Peak Dynamic = 0 W
            Subthreshold Leakage = 0.00593925 W
            Subthreshold Leakage with power gating = 0.00229085 W
            Gate Leakage = 1.30623e-05 W
            Runtime Dynamic = 0 W

          StoreQ:
            Area = 0.0100066 mm^2
            Peak Dynamic = 0 W
            Subthreshold Leakage = 0.0081244 W
            Subthreshold Leakage with power gating = 0.0031337 W
            Gate Leakage = 1.69241e-05 W
            Runtime Dynamic = 0 W

      Memory Management Unit:
        Area = 0.0193766 mm^2
        Peak Dynamic = 0.0753518 W
        Subthreshold Leakage = 0.0250943 W
        Subthreshold Leakage with power gating = 0.00967922 W
        Runtime Dynamic = 0 W

          Itlb:
            Area = 0.00619987 mm^2
            Peak Dynamic = 0 W
            Subthreshold Leakage = 0.00560668 W
            Subthreshold Leakage with power gating = 0.00216258 W
            Gate Leakage = 1.15098e-05 W
            Runtime Dynamic = 0 W

          Dtlb:
            Area = 0.00881592 mm^2
            Peak Dynamic = 0 W
            Subthreshold Leakage = 0.00888389 W
            Subthreshold Leakage with power gating = 0.00342664 W
            Gate Leakage = 1.76459e-05 W
            Runtime Dynamic = 0 W

      Execution Unit:
        Area = 1.07572 mm^2
        Peak Dynamic = 3.24954 W
        Subthreshold Leakage = 0.528804 W
        Subthreshold Leakage with power gating = 0.205323 W
        Runtime Dynamic = 0.821031 W

          Register Files:
            Area = 0.0533252 mm^2
            Peak Dynamic = 0 W
            Subthreshold Leakage = 0.00661458 W
            Subthreshold Leakage with power gating = 0.0027406 W
            Gate Leakage = 1.40736e-05 W
            Runtime Dynamic = 0 W

              Integer RF:
                Area = 0.0334906 mm^2
                Peak Dynamic = 0 W
                Subthreshold Leakage = 0.00403731 W
                Subthreshold Leakage with power gating = 0.00163574 W
                Gate Leakage = 8.8989e-06 W
                Runtime Dynamic = 0 W

              Floating Point RF:
                Area = 0.0198346 mm^2
                Peak Dynamic = 0 W
                Subthreshold Leakage = 0.00257727 W
                Subthreshold Leakage with power gating = 0.00110486 W
                Gate Leakage = 5.17467e-06 W
                Runtime Dynamic = 0 W

          Instruction Scheduler:
            Area = 0.215607 mm^2
            Peak Dynamic = 3.24954 W
            Subthreshold Leakage = 0.076717 W
            Subthreshold Leakage with power gating = 0.0307572 W
            Gate Leakage = 0.000169243 W
            Runtime Dynamic = 0 W

              Instruction Window:
                Area = 0.10145 mm^2
                Peak Dynamic = 1.39363 W
                Subthreshold Leakage = 0.0546082 W
                Subthreshold Leakage with power gating = 0.0210632 W
                Gate Leakage = 0.000124322 W
                Runtime Dynamic = 0 W

              FP Instruction Window:
                Area = 0.0325066 mm^2
                Peak Dynamic = 0.817568 W
                Subthreshold Leakage = 0.011568 W
                Subthreshold Leakage with power gating = 0.00446193 W
                Gate Leakage = 2.68689e-05 W
                Runtime Dynamic = 0 W

              ROB:
                Area = 0.0816501 mm^2
                Peak Dynamic = 1.03834 W
                Subthreshold Leakage = 0.0105408 W
                Subthreshold Leakage with power gating = 0.00523211 W
                Gate Leakage = 1.80525e-05 W
                Runtime Dynamic = 0 W

          Integer ALUs (Count: 6 ):
            Area = 0.230726 mm^2
            Peak Dynamic = 0 W
            Subthreshold Leakage = 0.187935 W
            Subthreshold Leakage with power gating = 0.0724893 W
            Gate Leakage = 0.000427106 W
            Runtime Dynamic = 0.136838 W

          Floating Point Units (FPUs) (Count: 2 ):
            Area = 0.450897 mm^2
            Peak Dynamic = 0 W
            Subthreshold Leakage = 0.091818 W
            Subthreshold Leakage with power gating = 0.0354155 W
            Gate Leakage = 0.000208668 W
            Runtime Dynamic = 0.410515 W

          Complex ALUs (Mul/Div) (Count: 1 ):
            Area = 0.115363 mm^2
            Peak Dynamic = 0 W
            Subthreshold Leakage = 0.0939676 W
            Subthreshold Leakage with power gating = 0.0362446 W
            Gate Leakage = 0.000213553 W
            Runtime Dynamic = 0.273677 W

          Results Broadcast Bus:
            Area Overhead = 0.00543891 mm^2
            Peak Dynamic = 0 W
            Subthreshold Leakage = 0.0611485 W
            Subthreshold Leakage with power gating = 0.0235859 W
            Gate Leakage = 0.000138968 W
            Runtime Dynamic = 0 W

    L2
    Area = 0.524074 mm^2
    Peak Dynamic = 0 W
    Subthreshold Leakage = 0.722154 W
    Subthreshold Leakage with power gating = 0.328576 W
    Gate Leakage = 0.000388341 W
    Runtime Dynamic = 0 W

*****************************************************************************************
Core:
      Area = 5.18282 mm^2
      Peak Dynamic = 8.07985 W
      Subthreshold Leakage = 3.06005 W
      Subthreshold Leakage with power gating = 1.24552 W
      Gate Leakage = 0.00566386 W
      Runtime Dynamic = 0.821031 W

      Instruction Fetch Unit:
        Area = 0.628731 mm^2
        Peak Dynamic = 1.07871 W
        Subthreshold Leakage = 0.510119 W
        Subthreshold Leakage with power gating = 0.207927 W
        Gate Leakage = 0.00109585 W
        Runtime Dynamic = 0 W

          Instruction Cache:
            Area = 0.375083 mm^2
            Peak Dynamic = 0 W
            Subthreshold Leakage = 0.236299 W
            Subthreshold Leakage with power gating = 0.094033 W
            Gate Leakage = 0.000609093 W
            Runtime Dynamic = 0 W

          Branch Target Buffer:
            Area = 0.0619963 mm^2
            Peak Dynamic = 0.101504 W
            Subthreshold Leakage = 0.042998 W
            Subthreshold Leakage with power gating = 0.0231987 W
            Gate Leakage = 5.00812e-05 W
            Runtime Dynamic = 0 W

          Branch Predictor:
            Area = 0.0124614 mm^2
            Peak Dynamic = 0.0364821 W
            Subthreshold Leakage = 0.0121619 W
            Subthreshold Leakage with power gating = 0.0062927 W
            Gate Leakage = 1.63868e-05 W
            Runtime Dynamic = 0 W

              Global Predictor:
                Area = 0.00400492 mm^2
                Peak Dynamic = 0.00900409 W
                Subthreshold Leakage = 0.00413566 W
                Subthreshold Leakage with power gating = 0.0021532 W
                Gate Leakage = 5.27177e-06 W
                Runtime Dynamic = 0 W

              Local Predictor:
              L1_Local Predictor:
                Area = 0.00228296 mm^2
                Peak Dynamic = 0.00769167 W
                Subthreshold Leakage = 0.00210304 W
                Subthreshold Leakage with power gating = 0.00108983 W
                Gate Leakage = 2.98326e-06 W
                Runtime Dynamic = 0 W

              L2_Local Predictor:
                Area = 0.00115846 mm^2
                Peak Dynamic = 0.00383542 W
                Subthreshold Leakage = 0.00115997 W
                Subthreshold Leakage with power gating = 0.000586761 W
                Gate Leakage = 1.82131e-06 W
                Runtime Dynamic = 0 W

              Chooser:
                Area = 0.00400492 mm^2
                Peak Dynamic = 0.00900409 W
                Subthreshold Leakage = 0.00413566 W
                Subthreshold Leakage with power gating = 0.0021532 W
                Gate Leakage = 5.27177e-06 W
                Runtime Dynamic = 0 W

              RAS:
                Area = 0.00101017 mm^2
                Peak Dynamic = 0.00694686 W
                Subthreshold Leakage = 0.000627592 W
                Subthreshold Leakage with power gating = 0.000309712 W
                Gate Leakage = 1.03873e-06 W
                Runtime Dynamic = 0 W

          Instruction Buffer:
            Area = 0.00178925 mm^2
            Peak Dynamic = 0.386362 W
            Subthreshold Leakage = 0.000878138 W
            Subthreshold Leakage with power gating = 0.000400367 W
            Gate Leakage = 1.43848e-06 W
            Runtime Dynamic = 0 W

          Instruction Decoder:
            Area = 0.17304 mm^2
            Peak Dynamic = 0.554361 W
            Subthreshold Leakage = 0.207179 W
            Subthreshold Leakage with power gating = 0.0799117 W
            Gate Leakage = 0.000358204 W
            Runtime Dynamic = 0 W

      Renaming Unit:
        Area = 0.0358588 mm^2
        Peak Dynamic = 2.82653 W
        Subthreshold Leakage = 0.0439459 W
        Subthreshold Leakage with power gating = 0.017011 W
        Gate Leakage = 0.000181197 W
        Runtime Dynamic = 0 W

          Int Front End RAT:
            Area = 0.0112201 mm^2
            Peak Dynamic = 0.479122 W
            Subthreshold Leakage = 0.00369248 W
            Subthreshold Leakage with power gating = 0.00142424 W
            Gate Leakage = 7.9817e-06 W
            Runtime Dynamic = 0 W

          FP Front End RAT:
            Area = 0.0163078 mm^2
            Peak Dynamic = 2.17289 W
            Subthreshold Leakage = 0.0292898 W
            Subthreshold Leakage with power gating = 0.0112975 W
            Gate Leakage = 0.000111844 W
            Runtime Dynamic = 0 W

          Free List:
            Area = 0.00397008 mm^2
            Peak Dynamic = 0.0238114 W
            Subthreshold Leakage = 0.000359861 W
            Subthreshold Leakage with power gating = 0.000199256 W
            Gate Leakage = 7.26665e-07 W
            Runtime Dynamic = 0 W

      Load Store Unit:
        Area = 0.744676 mm^2
        Peak Dynamic = 0.849714 W
        Subthreshold Leakage = 0.352523 W
        Subthreshold Leakage with power gating = 0.138572 W
        Gate Leakage = 0.000682391 W
        Runtime Dynamic = 0 W

          Data Cache:
            Area = 0.654623 mm^2
            Peak Dynamic = 0.849714 W
            Subthreshold Leakage = 0.327855 W
            Subthreshold Leakage with power gating = 0.129057 W
            Gate Leakage = 0.000591759 W
            Runtime Dynamic = 0 W

          LoadQ:
            Area = 0.00838428 mm^2
            Peak Dynamic = 0 W
            Subthreshold Leakage = 0.00593925 W
            Subthreshold Leakage with power gating = 0.00229085 W
            Gate Leakage = 1.30623e-05 W
            Runtime Dynamic = 0 W

          StoreQ:
            Area = 0.0100066 mm^2
            Peak Dynamic = 0 W
            Subthreshold Leakage = 0.0081244 W
            Subthreshold Leakage with power gating = 0.0031337 W
            Gate Leakage = 1.69241e-05 W
            Runtime Dynamic = 0 W

      Memory Management Unit:
        Area = 0.0193766 mm^2
        Peak Dynamic = 0.0753518 W
        Subthreshold Leakage = 0.0250943 W
        Subthreshold Leakage with power gating = 0.00967922 W
        Runtime Dynamic = 0 W

          Itlb:
            Area = 0.00619987 mm^2
            Peak Dynamic = 0 W
            Subthreshold Leakage = 0.00560668 W
            Subthreshold Leakage with power gating = 0.00216258 W
            Gate Leakage = 1.15098e-05 W
            Runtime Dynamic = 0 W

          Dtlb:
            Area = 0.00881592 mm^2
            Peak Dynamic = 0 W
            Subthreshold Leakage = 0.00888389 W
            Subthreshold Leakage with power gating = 0.00342664 W
            Gate Leakage = 1.76459e-05 W
            Runtime Dynamic = 0 W

      Execution Unit:
        Area = 1.07572 mm^2
        Peak Dynamic = 3.24954 W
        Subthreshold Leakage = 0.528804 W
        Subthreshold Leakage with power gating = 0.205323 W
        Runtime Dynamic = 0.821031 W

          Register Files:
            Area = 0.0533252 mm^2
            Peak Dynamic = 0 W
            Subthreshold Leakage = 0.00661458 W
            Subthreshold Leakage with power gating = 0.0027406 W
            Gate Leakage = 1.40736e-05 W
            Runtime Dynamic = 0 W

              Integer RF:
                Area = 0.0334906 mm^2
                Peak Dynamic = 0 W
                Subthreshold Leakage = 0.00403731 W
                Subthreshold Leakage with power gating = 0.00163574 W
                Gate Leakage = 8.8989e-06 W
                Runtime Dynamic = 0 W

              Floating Point RF:
                Area = 0.0198346 mm^2
                Peak Dynamic = 0 W
                Subthreshold Leakage = 0.00257727 W
                Subthreshold Leakage with power gating = 0.00110486 W
                Gate Leakage = 5.17467e-06 W
                Runtime Dynamic = 0 W

          Instruction Scheduler:
            Area = 0.215607 mm^2
            Peak Dynamic = 3.24954 W
            Subthreshold Leakage = 0.076717 W
            Subthreshold Leakage with power gating = 0.0307572 W
            Gate Leakage = 0.000169243 W
            Runtime Dynamic = 0 W

              Instruction Window:
                Area = 0.10145 mm^2
                Peak Dynamic = 1.39363 W
                Subthreshold Leakage = 0.0546082 W
                Subthreshold Leakage with power gating = 0.0210632 W
                Gate Leakage = 0.000124322 W
                Runtime Dynamic = 0 W

              FP Instruction Window:
                Area = 0.0325066 mm^2
                Peak Dynamic = 0.817568 W
                Subthreshold Leakage = 0.011568 W
                Subthreshold Leakage with power gating = 0.00446193 W
                Gate Leakage = 2.68689e-05 W
                Runtime Dynamic = 0 W

              ROB:
                Area = 0.0816501 mm^2
                Peak Dynamic = 1.03834 W
                Subthreshold Leakage = 0.0105408 W
                Subthreshold Leakage with power gating = 0.00523211 W
                Gate Leakage = 1.80525e-05 W
                Runtime Dynamic = 0 W

          Integer ALUs (Count: 6 ):
            Area = 0.230726 mm^2
            Peak Dynamic = 0 W
            Subthreshold Leakage = 0.187935 W
            Subthreshold Leakage with power gating = 0.0724893 W
            Gate Leakage = 0.000427106 W
            Runtime Dynamic = 0.136838 W

          Floating Point Units (FPUs) (Count: 2 ):
            Area = 0.450897 mm^2
            Peak Dynamic = 0 W
            Subthreshold Leakage = 0.091818 W
            Subthreshold Leakage with power gating = 0.0354155 W
            Gate Leakage = 0.000208668 W
            Runtime Dynamic = 0.410515 W

          Complex ALUs (Mul/Div) (Count: 1 ):
            Area = 0.115363 mm^2
            Peak Dynamic = 0 W
            Subthreshold Leakage = 0.0939676 W
            Subthreshold Leakage with power gating = 0.0362446 W
            Gate Leakage = 0.000213553 W
            Runtime Dynamic = 0.273677 W

          Results Broadcast Bus:
            Area Overhead = 0.00543891 mm^2
            Peak Dynamic = 0 W
            Subthreshold Leakage = 0.0611485 W
            Subthreshold Leakage with power gating = 0.0235859 W
            Gate Leakage = 0.000138968 W
            Runtime Dynamic = 0 W

    L2
    Area = 0.524074 mm^2
    Peak Dynamic = 0 W
    Subthreshold Leakage = 0.722154 W
    Subthreshold Leakage with power gating = 0.328576 W
    Gate Leakage = 0.000388341 W
    Runtime Dynamic = 0 W

*****************************************************************************************
Core:
      Area = 5.18282 mm^2
      Peak Dynamic = 8.07985 W
      Subthreshold Leakage = 3.06005 W
      Subthreshold Leakage with power gating = 1.24552 W
      Gate Leakage = 0.00566386 W
      Runtime Dynamic = 0.821031 W

      Instruction Fetch Unit:
        Area = 0.628731 mm^2
        Peak Dynamic = 1.07871 W
        Subthreshold Leakage = 0.510119 W
        Subthreshold Leakage with power gating = 0.207927 W
        Gate Leakage = 0.00109585 W
        Runtime Dynamic = 0 W

          Instruction Cache:
            Area = 0.375083 mm^2
            Peak Dynamic = 0 W
            Subthreshold Leakage = 0.236299 W
            Subthreshold Leakage with power gating = 0.094033 W
            Gate Leakage = 0.000609093 W
            Runtime Dynamic = 0 W

          Branch Target Buffer:
            Area = 0.0619963 mm^2
            Peak Dynamic = 0.101504 W
            Subthreshold Leakage = 0.042998 W
            Subthreshold Leakage with power gating = 0.0231987 W
            Gate Leakage = 5.00812e-05 W
            Runtime Dynamic = 0 W

          Branch Predictor:
            Area = 0.0124614 mm^2
            Peak Dynamic = 0.0364821 W
            Subthreshold Leakage = 0.0121619 W
            Subthreshold Leakage with power gating = 0.0062927 W
            Gate Leakage = 1.63868e-05 W
            Runtime Dynamic = 0 W

              Global Predictor:
                Area = 0.00400492 mm^2
                Peak Dynamic = 0.00900409 W
                Subthreshold Leakage = 0.00413566 W
                Subthreshold Leakage with power gating = 0.0021532 W
                Gate Leakage = 5.27177e-06 W
                Runtime Dynamic = 0 W

              Local Predictor:
              L1_Local Predictor:
                Area = 0.00228296 mm^2
                Peak Dynamic = 0.00769167 W
                Subthreshold Leakage = 0.00210304 W
                Subthreshold Leakage with power gating = 0.00108983 W
                Gate Leakage = 2.98326e-06 W
                Runtime Dynamic = 0 W

              L2_Local Predictor:
                Area = 0.00115846 mm^2
                Peak Dynamic = 0.00383542 W
                Subthreshold Leakage = 0.00115997 W
                Subthreshold Leakage with power gating = 0.000586761 W
                Gate Leakage = 1.82131e-06 W
                Runtime Dynamic = 0 W

              Chooser:
                Area = 0.00400492 mm^2
                Peak Dynamic = 0.00900409 W
                Subthreshold Leakage = 0.00413566 W
                Subthreshold Leakage with power gating = 0.0021532 W
                Gate Leakage = 5.27177e-06 W
                Runtime Dynamic = 0 W

              RAS:
                Area = 0.00101017 mm^2
                Peak Dynamic = 0.00694686 W
                Subthreshold Leakage = 0.000627592 W
                Subthreshold Leakage with power gating = 0.000309712 W
                Gate Leakage = 1.03873e-06 W
                Runtime Dynamic = 0 W

          Instruction Buffer:
            Area = 0.00178925 mm^2
            Peak Dynamic = 0.386362 W
            Subthreshold Leakage = 0.000878138 W
            Subthreshold Leakage with power gating = 0.000400367 W
            Gate Leakage = 1.43848e-06 W
            Runtime Dynamic = 0 W

          Instruction Decoder:
            Area = 0.17304 mm^2
            Peak Dynamic = 0.554361 W
            Subthreshold Leakage = 0.207179 W
            Subthreshold Leakage with power gating = 0.0799117 W
            Gate Leakage = 0.000358204 W
            Runtime Dynamic = 0 W

      Renaming Unit:
        Area = 0.0358588 mm^2
        Peak Dynamic = 2.82653 W
        Subthreshold Leakage = 0.0439459 W
        Subthreshold Leakage with power gating = 0.017011 W
        Gate Leakage = 0.000181197 W
        Runtime Dynamic = 0 W

          Int Front End RAT:
            Area = 0.0112201 mm^2
            Peak Dynamic = 0.479122 W
            Subthreshold Leakage = 0.00369248 W
            Subthreshold Leakage with power gating = 0.00142424 W
            Gate Leakage = 7.9817e-06 W
            Runtime Dynamic = 0 W

          FP Front End RAT:
            Area = 0.0163078 mm^2
            Peak Dynamic = 2.17289 W
            Subthreshold Leakage = 0.0292898 W
            Subthreshold Leakage with power gating = 0.0112975 W
            Gate Leakage = 0.000111844 W
            Runtime Dynamic = 0 W

          Free List:
            Area = 0.00397008 mm^2
            Peak Dynamic = 0.0238114 W
            Subthreshold Leakage = 0.000359861 W
            Subthreshold Leakage with power gating = 0.000199256 W
            Gate Leakage = 7.26665e-07 W
            Runtime Dynamic = 0 W

      Load Store Unit:
        Area = 0.744676 mm^2
        Peak Dynamic = 0.849714 W
        Subthreshold Leakage = 0.352523 W
        Subthreshold Leakage with power gating = 0.138572 W
        Gate Leakage = 0.000682391 W
        Runtime Dynamic = 0 W

          Data Cache:
            Area = 0.654623 mm^2
            Peak Dynamic = 0.849714 W
            Subthreshold Leakage = 0.327855 W
            Subthreshold Leakage with power gating = 0.129057 W
            Gate Leakage = 0.000591759 W
            Runtime Dynamic = 0 W

          LoadQ:
            Area = 0.00838428 mm^2
            Peak Dynamic = 0 W
            Subthreshold Leakage = 0.00593925 W
            Subthreshold Leakage with power gating = 0.00229085 W
            Gate Leakage = 1.30623e-05 W
            Runtime Dynamic = 0 W

          StoreQ:
            Area = 0.0100066 mm^2
            Peak Dynamic = 0 W
            Subthreshold Leakage = 0.0081244 W
            Subthreshold Leakage with power gating = 0.0031337 W
            Gate Leakage = 1.69241e-05 W
            Runtime Dynamic = 0 W

      Memory Management Unit:
        Area = 0.0193766 mm^2
        Peak Dynamic = 0.0753518 W
        Subthreshold Leakage = 0.0250943 W
        Subthreshold Leakage with power gating = 0.00967922 W
        Runtime Dynamic = 0 W

          Itlb:
            Area = 0.00619987 mm^2
            Peak Dynamic = 0 W
            Subthreshold Leakage = 0.00560668 W
            Subthreshold Leakage with power gating = 0.00216258 W
            Gate Leakage = 1.15098e-05 W
            Runtime Dynamic = 0 W

          Dtlb:
            Area = 0.00881592 mm^2
            Peak Dynamic = 0 W
            Subthreshold Leakage = 0.00888389 W
            Subthreshold Leakage with power gating = 0.00342664 W
            Gate Leakage = 1.76459e-05 W
            Runtime Dynamic = 0 W

      Execution Unit:
        Area = 1.07572 mm^2
        Peak Dynamic = 3.24954 W
        Subthreshold Leakage = 0.528804 W
        Subthreshold Leakage with power gating = 0.205323 W
        Runtime Dynamic = 0.821031 W

          Register Files:
            Area = 0.0533252 mm^2
            Peak Dynamic = 0 W
            Subthreshold Leakage = 0.00661458 W
            Subthreshold Leakage with power gating = 0.0027406 W
            Gate Leakage = 1.40736e-05 W
            Runtime Dynamic = 0 W

              Integer RF:
                Area = 0.0334906 mm^2
                Peak Dynamic = 0 W
                Subthreshold Leakage = 0.00403731 W
                Subthreshold Leakage with power gating = 0.00163574 W
                Gate Leakage = 8.8989e-06 W
                Runtime Dynamic = 0 W

              Floating Point RF:
                Area = 0.0198346 mm^2
                Peak Dynamic = 0 W
                Subthreshold Leakage = 0.00257727 W
                Subthreshold Leakage with power gating = 0.00110486 W
                Gate Leakage = 5.17467e-06 W
                Runtime Dynamic = 0 W

          Instruction Scheduler:
            Area = 0.215607 mm^2
            Peak Dynamic = 3.24954 W
            Subthreshold Leakage = 0.076717 W
            Subthreshold Leakage with power gating = 0.0307572 W
            Gate Leakage = 0.000169243 W
            Runtime Dynamic = 0 W

              Instruction Window:
                Area = 0.10145 mm^2
                Peak Dynamic = 1.39363 W
                Subthreshold Leakage = 0.0546082 W
                Subthreshold Leakage with power gating = 0.0210632 W
                Gate Leakage = 0.000124322 W
                Runtime Dynamic = 0 W

              FP Instruction Window:
                Area = 0.0325066 mm^2
                Peak Dynamic = 0.817568 W
                Subthreshold Leakage = 0.011568 W
                Subthreshold Leakage with power gating = 0.00446193 W
                Gate Leakage = 2.68689e-05 W
                Runtime Dynamic = 0 W

              ROB:
                Area = 0.0816501 mm^2
                Peak Dynamic = 1.03834 W
                Subthreshold Leakage = 0.0105408 W
                Subthreshold Leakage with power gating = 0.00523211 W
                Gate Leakage = 1.80525e-05 W
                Runtime Dynamic = 0 W

          Integer ALUs (Count: 6 ):
            Area = 0.230726 mm^2
            Peak Dynamic = 0 W
            Subthreshold Leakage = 0.187935 W
            Subthreshold Leakage with power gating = 0.0724893 W
            Gate Leakage = 0.000427106 W
            Runtime Dynamic = 0.136838 W

          Floating Point Units (FPUs) (Count: 2 ):
            Area = 0.450897 mm^2
            Peak Dynamic = 0 W
            Subthreshold Leakage = 0.091818 W
            Subthreshold Leakage with power gating = 0.0354155 W
            Gate Leakage = 0.000208668 W
            Runtime Dynamic = 0.410515 W

          Complex ALUs (Mul/Div) (Count: 1 ):
            Area = 0.115363 mm^2
            Peak Dynamic = 0 W
            Subthreshold Leakage = 0.0939676 W
            Subthreshold Leakage with power gating = 0.0362446 W
            Gate Leakage = 0.000213553 W
            Runtime Dynamic = 0.273677 W

          Results Broadcast Bus:
            Area Overhead = 0.00543891 mm^2
            Peak Dynamic = 0 W
            Subthreshold Leakage = 0.0611485 W
            Subthreshold Leakage with power gating = 0.0235859 W
            Gate Leakage = 0.000138968 W
            Runtime Dynamic = 0 W

    L2
    Area = 0.524074 mm^2
    Peak Dynamic = 0 W
    Subthreshold Leakage = 0.722154 W
    Subthreshold Leakage with power gating = 0.328576 W
    Gate Leakage = 0.000388341 W
    Runtime Dynamic = 0 W

*****************************************************************************************
Core:
      Area = 5.18282 mm^2
      Peak Dynamic = 8.07985 W
      Subthreshold Leakage = 3.06005 W
      Subthreshold Leakage with power gating = 1.24552 W
      Gate Leakage = 0.00566386 W
      Runtime Dynamic = 0.821031 W

      Instruction Fetch Unit:
        Area = 0.628731 mm^2
        Peak Dynamic = 1.07871 W
        Subthreshold Leakage = 0.510119 W
        Subthreshold Leakage with power gating = 0.207927 W
        Gate Leakage = 0.00109585 W
        Runtime Dynamic = 0 W

          Instruction Cache:
            Area = 0.375083 mm^2
            Peak Dynamic = 0 W
            Subthreshold Leakage = 0.236299 W
            Subthreshold Leakage with power gating = 0.094033 W
            Gate Leakage = 0.000609093 W
            Runtime Dynamic = 0 W

          Branch Target Buffer:
            Area = 0.0619963 mm^2
            Peak Dynamic = 0.101504 W
            Subthreshold Leakage = 0.042998 W
            Subthreshold Leakage with power gating = 0.0231987 W
            Gate Leakage = 5.00812e-05 W
            Runtime Dynamic = 0 W

          Branch Predictor:
            Area = 0.0124614 mm^2
            Peak Dynamic = 0.0364821 W
            Subthreshold Leakage = 0.0121619 W
            Subthreshold Leakage with power gating = 0.0062927 W
            Gate Leakage = 1.63868e-05 W
            Runtime Dynamic = 0 W

              Global Predictor:
                Area = 0.00400492 mm^2
                Peak Dynamic = 0.00900409 W
                Subthreshold Leakage = 0.00413566 W
                Subthreshold Leakage with power gating = 0.0021532 W
                Gate Leakage = 5.27177e-06 W
                Runtime Dynamic = 0 W

              Local Predictor:
              L1_Local Predictor:
                Area = 0.00228296 mm^2
                Peak Dynamic = 0.00769167 W
                Subthreshold Leakage = 0.00210304 W
                Subthreshold Leakage with power gating = 0.00108983 W
                Gate Leakage = 2.98326e-06 W
                Runtime Dynamic = 0 W

              L2_Local Predictor:
                Area = 0.00115846 mm^2
                Peak Dynamic = 0.00383542 W
                Subthreshold Leakage = 0.00115997 W
                Subthreshold Leakage with power gating = 0.000586761 W
                Gate Leakage = 1.82131e-06 W
                Runtime Dynamic = 0 W

              Chooser:
                Area = 0.00400492 mm^2
                Peak Dynamic = 0.00900409 W
                Subthreshold Leakage = 0.00413566 W
                Subthreshold Leakage with power gating = 0.0021532 W
                Gate Leakage = 5.27177e-06 W
                Runtime Dynamic = 0 W

              RAS:
                Area = 0.00101017 mm^2
                Peak Dynamic = 0.00694686 W
                Subthreshold Leakage = 0.000627592 W
                Subthreshold Leakage with power gating = 0.000309712 W
                Gate Leakage = 1.03873e-06 W
                Runtime Dynamic = 0 W

          Instruction Buffer:
            Area = 0.00178925 mm^2
            Peak Dynamic = 0.386362 W
            Subthreshold Leakage = 0.000878138 W
            Subthreshold Leakage with power gating = 0.000400367 W
            Gate Leakage = 1.43848e-06 W
            Runtime Dynamic = 0 W

          Instruction Decoder:
            Area = 0.17304 mm^2
            Peak Dynamic = 0.554361 W
            Subthreshold Leakage = 0.207179 W
            Subthreshold Leakage with power gating = 0.0799117 W
            Gate Leakage = 0.000358204 W
            Runtime Dynamic = 0 W

      Renaming Unit:
        Area = 0.0358588 mm^2
        Peak Dynamic = 2.82653 W
        Subthreshold Leakage = 0.0439459 W
        Subthreshold Leakage with power gating = 0.017011 W
        Gate Leakage = 0.000181197 W
        Runtime Dynamic = 0 W

          Int Front End RAT:
            Area = 0.0112201 mm^2
            Peak Dynamic = 0.479122 W
            Subthreshold Leakage = 0.00369248 W
            Subthreshold Leakage with power gating = 0.00142424 W
            Gate Leakage = 7.9817e-06 W
            Runtime Dynamic = 0 W

          FP Front End RAT:
            Area = 0.0163078 mm^2
            Peak Dynamic = 2.17289 W
            Subthreshold Leakage = 0.0292898 W
            Subthreshold Leakage with power gating = 0.0112975 W
            Gate Leakage = 0.000111844 W
            Runtime Dynamic = 0 W

          Free List:
            Area = 0.00397008 mm^2
            Peak Dynamic = 0.0238114 W
            Subthreshold Leakage = 0.000359861 W
            Subthreshold Leakage with power gating = 0.000199256 W
            Gate Leakage = 7.26665e-07 W
            Runtime Dynamic = 0 W

      Load Store Unit:
        Area = 0.744676 mm^2
        Peak Dynamic = 0.849714 W
        Subthreshold Leakage = 0.352523 W
        Subthreshold Leakage with power gating = 0.138572 W
        Gate Leakage = 0.000682391 W
        Runtime Dynamic = 0 W

          Data Cache:
            Area = 0.654623 mm^2
            Peak Dynamic = 0.849714 W
            Subthreshold Leakage = 0.327855 W
            Subthreshold Leakage with power gating = 0.129057 W
            Gate Leakage = 0.000591759 W
            Runtime Dynamic = 0 W

          LoadQ:
            Area = 0.00838428 mm^2
            Peak Dynamic = 0 W
            Subthreshold Leakage = 0.00593925 W
            Subthreshold Leakage with power gating = 0.00229085 W
            Gate Leakage = 1.30623e-05 W
            Runtime Dynamic = 0 W

          StoreQ:
            Area = 0.0100066 mm^2
            Peak Dynamic = 0 W
            Subthreshold Leakage = 0.0081244 W
            Subthreshold Leakage with power gating = 0.0031337 W
            Gate Leakage = 1.69241e-05 W
            Runtime Dynamic = 0 W

      Memory Management Unit:
        Area = 0.0193766 mm^2
        Peak Dynamic = 0.0753518 W
        Subthreshold Leakage = 0.0250943 W
        Subthreshold Leakage with power gating = 0.00967922 W
        Runtime Dynamic = 0 W

          Itlb:
            Area = 0.00619987 mm^2
            Peak Dynamic = 0 W
            Subthreshold Leakage = 0.00560668 W
            Subthreshold Leakage with power gating = 0.00216258 W
            Gate Leakage = 1.15098e-05 W
            Runtime Dynamic = 0 W

          Dtlb:
            Area = 0.00881592 mm^2
            Peak Dynamic = 0 W
            Subthreshold Leakage = 0.00888389 W
            Subthreshold Leakage with power gating = 0.00342664 W
            Gate Leakage = 1.76459e-05 W
            Runtime Dynamic = 0 W

      Execution Unit:
        Area = 1.07572 mm^2
        Peak Dynamic = 3.24954 W
        Subthreshold Leakage = 0.528804 W
        Subthreshold Leakage with power gating = 0.205323 W
        Runtime Dynamic = 0.821031 W

          Register Files:
            Area = 0.0533252 mm^2
            Peak Dynamic = 0 W
            Subthreshold Leakage = 0.00661458 W
            Subthreshold Leakage with power gating = 0.0027406 W
            Gate Leakage = 1.40736e-05 W
            Runtime Dynamic = 0 W

              Integer RF:
                Area = 0.0334906 mm^2
                Peak Dynamic = 0 W
                Subthreshold Leakage = 0.00403731 W
                Subthreshold Leakage with power gating = 0.00163574 W
                Gate Leakage = 8.8989e-06 W
                Runtime Dynamic = 0 W

              Floating Point RF:
                Area = 0.0198346 mm^2
                Peak Dynamic = 0 W
                Subthreshold Leakage = 0.00257727 W
                Subthreshold Leakage with power gating = 0.00110486 W
                Gate Leakage = 5.17467e-06 W
                Runtime Dynamic = 0 W

          Instruction Scheduler:
            Area = 0.215607 mm^2
            Peak Dynamic = 3.24954 W
            Subthreshold Leakage = 0.076717 W
            Subthreshold Leakage with power gating = 0.0307572 W
            Gate Leakage = 0.000169243 W
            Runtime Dynamic = 0 W

              Instruction Window:
                Area = 0.10145 mm^2
                Peak Dynamic = 1.39363 W
                Subthreshold Leakage = 0.0546082 W
                Subthreshold Leakage with power gating = 0.0210632 W
                Gate Leakage = 0.000124322 W
                Runtime Dynamic = 0 W

              FP Instruction Window:
                Area = 0.0325066 mm^2
                Peak Dynamic = 0.817568 W
                Subthreshold Leakage = 0.011568 W
                Subthreshold Leakage with power gating = 0.00446193 W
                Gate Leakage = 2.68689e-05 W
                Runtime Dynamic = 0 W

              ROB:
                Area = 0.0816501 mm^2
                Peak Dynamic = 1.03834 W
                Subthreshold Leakage = 0.0105408 W
                Subthreshold Leakage with power gating = 0.00523211 W
                Gate Leakage = 1.80525e-05 W
                Runtime Dynamic = 0 W

          Integer ALUs (Count: 6 ):
            Area = 0.230726 mm^2
            Peak Dynamic = 0 W
            Subthreshold Leakage = 0.187935 W
            Subthreshold Leakage with power gating = 0.0724893 W
            Gate Leakage = 0.000427106 W
            Runtime Dynamic = 0.136838 W

          Floating Point Units (FPUs) (Count: 2 ):
            Area = 0.450897 mm^2
            Peak Dynamic = 0 W
            Subthreshold Leakage = 0.091818 W
            Subthreshold Leakage with power gating = 0.0354155 W
            Gate Leakage = 0.000208668 W
            Runtime Dynamic = 0.410515 W

          Complex ALUs (Mul/Div) (Count: 1 ):
            Area = 0.115363 mm^2
            Peak Dynamic = 0 W
            Subthreshold Leakage = 0.0939676 W
            Subthreshold Leakage with power gating = 0.0362446 W
            Gate Leakage = 0.000213553 W
            Runtime Dynamic = 0.273677 W

          Results Broadcast Bus:
            Area Overhead = 0.00543891 mm^2
            Peak Dynamic = 0 W
            Subthreshold Leakage = 0.0611485 W
            Subthreshold Leakage with power gating = 0.0235859 W
            Gate Leakage = 0.000138968 W
            Runtime Dynamic = 0 W

    L2
    Area = 0.524074 mm^2
    Peak Dynamic = 0 W
    Subthreshold Leakage = 0.722154 W
    Subthreshold Leakage with power gating = 0.328576 W
    Gate Leakage = 0.000388341 W
    Runtime Dynamic = 0 W

*****************************************************************************************
Core:
      Area = 5.18282 mm^2
      Peak Dynamic = 8.07985 W
      Subthreshold Leakage = 3.06005 W
      Subthreshold Leakage with power gating = 1.24552 W
      Gate Leakage = 0.00566386 W
      Runtime Dynamic = 0.821031 W

      Instruction Fetch Unit:
        Area = 0.628731 mm^2
        Peak Dynamic = 1.07871 W
        Subthreshold Leakage = 0.510119 W
        Subthreshold Leakage with power gating = 0.207927 W
        Gate Leakage = 0.00109585 W
        Runtime Dynamic = 0 W

          Instruction Cache:
            Area = 0.375083 mm^2
            Peak Dynamic = 0 W
            Subthreshold Leakage = 0.236299 W
            Subthreshold Leakage with power gating = 0.094033 W
            Gate Leakage = 0.000609093 W
            Runtime Dynamic = 0 W

          Branch Target Buffer:
            Area = 0.0619963 mm^2
            Peak Dynamic = 0.101504 W
            Subthreshold Leakage = 0.042998 W
            Subthreshold Leakage with power gating = 0.0231987 W
            Gate Leakage = 5.00812e-05 W
            Runtime Dynamic = 0 W

          Branch Predictor:
            Area = 0.0124614 mm^2
            Peak Dynamic = 0.0364821 W
            Subthreshold Leakage = 0.0121619 W
            Subthreshold Leakage with power gating = 0.0062927 W
            Gate Leakage = 1.63868e-05 W
            Runtime Dynamic = 0 W

              Global Predictor:
                Area = 0.00400492 mm^2
                Peak Dynamic = 0.00900409 W
                Subthreshold Leakage = 0.00413566 W
                Subthreshold Leakage with power gating = 0.0021532 W
                Gate Leakage = 5.27177e-06 W
                Runtime Dynamic = 0 W

              Local Predictor:
              L1_Local Predictor:
                Area = 0.00228296 mm^2
                Peak Dynamic = 0.00769167 W
                Subthreshold Leakage = 0.00210304 W
                Subthreshold Leakage with power gating = 0.00108983 W
                Gate Leakage = 2.98326e-06 W
                Runtime Dynamic = 0 W

              L2_Local Predictor:
                Area = 0.00115846 mm^2
                Peak Dynamic = 0.00383542 W
                Subthreshold Leakage = 0.00115997 W
                Subthreshold Leakage with power gating = 0.000586761 W
                Gate Leakage = 1.82131e-06 W
                Runtime Dynamic = 0 W

              Chooser:
                Area = 0.00400492 mm^2
                Peak Dynamic = 0.00900409 W
                Subthreshold Leakage = 0.00413566 W
                Subthreshold Leakage with power gating = 0.0021532 W
                Gate Leakage = 5.27177e-06 W
                Runtime Dynamic = 0 W

              RAS:
                Area = 0.00101017 mm^2
                Peak Dynamic = 0.00694686 W
                Subthreshold Leakage = 0.000627592 W
                Subthreshold Leakage with power gating = 0.000309712 W
                Gate Leakage = 1.03873e-06 W
                Runtime Dynamic = 0 W

          Instruction Buffer:
            Area = 0.00178925 mm^2
            Peak Dynamic = 0.386362 W
            Subthreshold Leakage = 0.000878138 W
            Subthreshold Leakage with power gating = 0.000400367 W
            Gate Leakage = 1.43848e-06 W
            Runtime Dynamic = 0 W

          Instruction Decoder:
            Area = 0.17304 mm^2
            Peak Dynamic = 0.554361 W
            Subthreshold Leakage = 0.207179 W
            Subthreshold Leakage with power gating = 0.0799117 W
            Gate Leakage = 0.000358204 W
            Runtime Dynamic = 0 W

      Renaming Unit:
        Area = 0.0358588 mm^2
        Peak Dynamic = 2.82653 W
        Subthreshold Leakage = 0.0439459 W
        Subthreshold Leakage with power gating = 0.017011 W
        Gate Leakage = 0.000181197 W
        Runtime Dynamic = 0 W

          Int Front End RAT:
            Area = 0.0112201 mm^2
            Peak Dynamic = 0.479122 W
            Subthreshold Leakage = 0.00369248 W
            Subthreshold Leakage with power gating = 0.00142424 W
            Gate Leakage = 7.9817e-06 W
            Runtime Dynamic = 0 W

          FP Front End RAT:
            Area = 0.0163078 mm^2
            Peak Dynamic = 2.17289 W
            Subthreshold Leakage = 0.0292898 W
            Subthreshold Leakage with power gating = 0.0112975 W
            Gate Leakage = 0.000111844 W
            Runtime Dynamic = 0 W

          Free List:
            Area = 0.00397008 mm^2
            Peak Dynamic = 0.0238114 W
            Subthreshold Leakage = 0.000359861 W
            Subthreshold Leakage with power gating = 0.000199256 W
            Gate Leakage = 7.26665e-07 W
            Runtime Dynamic = 0 W

      Load Store Unit:
        Area = 0.744676 mm^2
        Peak Dynamic = 0.849714 W
        Subthreshold Leakage = 0.352523 W
        Subthreshold Leakage with power gating = 0.138572 W
        Gate Leakage = 0.000682391 W
        Runtime Dynamic = 0 W

          Data Cache:
            Area = 0.654623 mm^2
            Peak Dynamic = 0.849714 W
            Subthreshold Leakage = 0.327855 W
            Subthreshold Leakage with power gating = 0.129057 W
            Gate Leakage = 0.000591759 W
            Runtime Dynamic = 0 W

          LoadQ:
            Area = 0.00838428 mm^2
            Peak Dynamic = 0 W
            Subthreshold Leakage = 0.00593925 W
            Subthreshold Leakage with power gating = 0.00229085 W
            Gate Leakage = 1.30623e-05 W
            Runtime Dynamic = 0 W

          StoreQ:
            Area = 0.0100066 mm^2
            Peak Dynamic = 0 W
            Subthreshold Leakage = 0.0081244 W
            Subthreshold Leakage with power gating = 0.0031337 W
            Gate Leakage = 1.69241e-05 W
            Runtime Dynamic = 0 W

      Memory Management Unit:
        Area = 0.0193766 mm^2
        Peak Dynamic = 0.0753518 W
        Subthreshold Leakage = 0.0250943 W
        Subthreshold Leakage with power gating = 0.00967922 W
        Runtime Dynamic = 0 W

          Itlb:
            Area = 0.00619987 mm^2
            Peak Dynamic = 0 W
            Subthreshold Leakage = 0.00560668 W
            Subthreshold Leakage with power gating = 0.00216258 W
            Gate Leakage = 1.15098e-05 W
            Runtime Dynamic = 0 W

          Dtlb:
            Area = 0.00881592 mm^2
            Peak Dynamic = 0 W
            Subthreshold Leakage = 0.00888389 W
            Subthreshold Leakage with power gating = 0.00342664 W
            Gate Leakage = 1.76459e-05 W
            Runtime Dynamic = 0 W

      Execution Unit:
        Area = 1.07572 mm^2
        Peak Dynamic = 3.24954 W
        Subthreshold Leakage = 0.528804 W
        Subthreshold Leakage with power gating = 0.205323 W
        Runtime Dynamic = 0.821031 W

          Register Files:
            Area = 0.0533252 mm^2
            Peak Dynamic = 0 W
            Subthreshold Leakage = 0.00661458 W
            Subthreshold Leakage with power gating = 0.0027406 W
            Gate Leakage = 1.40736e-05 W
            Runtime Dynamic = 0 W

              Integer RF:
                Area = 0.0334906 mm^2
                Peak Dynamic = 0 W
                Subthreshold Leakage = 0.00403731 W
                Subthreshold Leakage with power gating = 0.00163574 W
                Gate Leakage = 8.8989e-06 W
                Runtime Dynamic = 0 W

              Floating Point RF:
                Area = 0.0198346 mm^2
                Peak Dynamic = 0 W
                Subthreshold Leakage = 0.00257727 W
                Subthreshold Leakage with power gating = 0.00110486 W
                Gate Leakage = 5.17467e-06 W
                Runtime Dynamic = 0 W

          Instruction Scheduler:
            Area = 0.215607 mm^2
            Peak Dynamic = 3.24954 W
            Subthreshold Leakage = 0.076717 W
            Subthreshold Leakage with power gating = 0.0307572 W
            Gate Leakage = 0.000169243 W
            Runtime Dynamic = 0 W

              Instruction Window:
                Area = 0.10145 mm^2
                Peak Dynamic = 1.39363 W
                Subthreshold Leakage = 0.0546082 W
                Subthreshold Leakage with power gating = 0.0210632 W
                Gate Leakage = 0.000124322 W
                Runtime Dynamic = 0 W

              FP Instruction Window:
                Area = 0.0325066 mm^2
                Peak Dynamic = 0.817568 W
                Subthreshold Leakage = 0.011568 W
                Subthreshold Leakage with power gating = 0.00446193 W
                Gate Leakage = 2.68689e-05 W
                Runtime Dynamic = 0 W

              ROB:
                Area = 0.0816501 mm^2
                Peak Dynamic = 1.03834 W
                Subthreshold Leakage = 0.0105408 W
                Subthreshold Leakage with power gating = 0.00523211 W
                Gate Leakage = 1.80525e-05 W
                Runtime Dynamic = 0 W

          Integer ALUs (Count: 6 ):
            Area = 0.230726 mm^2
            Peak Dynamic = 0 W
            Subthreshold Leakage = 0.187935 W
            Subthreshold Leakage with power gating = 0.0724893 W
            Gate Leakage = 0.000427106 W
            Runtime Dynamic = 0.136838 W

          Floating Point Units (FPUs) (Count: 2 ):
            Area = 0.450897 mm^2
            Peak Dynamic = 0 W
            Subthreshold Leakage = 0.091818 W
            Subthreshold Leakage with power gating = 0.0354155 W
            Gate Leakage = 0.000208668 W
            Runtime Dynamic = 0.410515 W

          Complex ALUs (Mul/Div) (Count: 1 ):
            Area = 0.115363 mm^2
            Peak Dynamic = 0 W
            Subthreshold Leakage = 0.0939676 W
            Subthreshold Leakage with power gating = 0.0362446 W
            Gate Leakage = 0.000213553 W
            Runtime Dynamic = 0.273677 W

          Results Broadcast Bus:
            Area Overhead = 0.00543891 mm^2
            Peak Dynamic = 0 W
            Subthreshold Leakage = 0.0611485 W
            Subthreshold Leakage with power gating = 0.0235859 W
            Gate Leakage = 0.000138968 W
            Runtime Dynamic = 0 W

    L2
    Area = 0.524074 mm^2
    Peak Dynamic = 0 W
    Subthreshold Leakage = 0.722154 W
    Subthreshold Leakage with power gating = 0.328576 W
    Gate Leakage = 0.000388341 W
    Runtime Dynamic = 0 W

*****************************************************************************************
Core:
      Area = 5.18282 mm^2
      Peak Dynamic = 8.07985 W
      Subthreshold Leakage = 3.06005 W
      Subthreshold Leakage with power gating = 1.24552 W
      Gate Leakage = 0.00566386 W
      Runtime Dynamic = 0.821031 W

      Instruction Fetch Unit:
        Area = 0.628731 mm^2
        Peak Dynamic = 1.07871 W
        Subthreshold Leakage = 0.510119 W
        Subthreshold Leakage with power gating = 0.207927 W
        Gate Leakage = 0.00109585 W
        Runtime Dynamic = 0 W

          Instruction Cache:
            Area = 0.375083 mm^2
            Peak Dynamic = 0 W
            Subthreshold Leakage = 0.236299 W
            Subthreshold Leakage with power gating = 0.094033 W
            Gate Leakage = 0.000609093 W
            Runtime Dynamic = 0 W

          Branch Target Buffer:
            Area = 0.0619963 mm^2
            Peak Dynamic = 0.101504 W
            Subthreshold Leakage = 0.042998 W
            Subthreshold Leakage with power gating = 0.0231987 W
            Gate Leakage = 5.00812e-05 W
            Runtime Dynamic = 0 W

          Branch Predictor:
            Area = 0.0124614 mm^2
            Peak Dynamic = 0.0364821 W
            Subthreshold Leakage = 0.0121619 W
            Subthreshold Leakage with power gating = 0.0062927 W
            Gate Leakage = 1.63868e-05 W
            Runtime Dynamic = 0 W

              Global Predictor:
                Area = 0.00400492 mm^2
                Peak Dynamic = 0.00900409 W
                Subthreshold Leakage = 0.00413566 W
                Subthreshold Leakage with power gating = 0.0021532 W
                Gate Leakage = 5.27177e-06 W
                Runtime Dynamic = 0 W

              Local Predictor:
              L1_Local Predictor:
                Area = 0.00228296 mm^2
                Peak Dynamic = 0.00769167 W
                Subthreshold Leakage = 0.00210304 W
                Subthreshold Leakage with power gating = 0.00108983 W
                Gate Leakage = 2.98326e-06 W
                Runtime Dynamic = 0 W

              L2_Local Predictor:
                Area = 0.00115846 mm^2
                Peak Dynamic = 0.00383542 W
                Subthreshold Leakage = 0.00115997 W
                Subthreshold Leakage with power gating = 0.000586761 W
                Gate Leakage = 1.82131e-06 W
                Runtime Dynamic = 0 W

              Chooser:
                Area = 0.00400492 mm^2
                Peak Dynamic = 0.00900409 W
                Subthreshold Leakage = 0.00413566 W
                Subthreshold Leakage with power gating = 0.0021532 W
                Gate Leakage = 5.27177e-06 W
                Runtime Dynamic = 0 W

              RAS:
                Area = 0.00101017 mm^2
                Peak Dynamic = 0.00694686 W
                Subthreshold Leakage = 0.000627592 W
                Subthreshold Leakage with power gating = 0.000309712 W
                Gate Leakage = 1.03873e-06 W
                Runtime Dynamic = 0 W

          Instruction Buffer:
            Area = 0.00178925 mm^2
            Peak Dynamic = 0.386362 W
            Subthreshold Leakage = 0.000878138 W
            Subthreshold Leakage with power gating = 0.000400367 W
            Gate Leakage = 1.43848e-06 W
            Runtime Dynamic = 0 W

          Instruction Decoder:
            Area = 0.17304 mm^2
            Peak Dynamic = 0.554361 W
            Subthreshold Leakage = 0.207179 W
            Subthreshold Leakage with power gating = 0.0799117 W
            Gate Leakage = 0.000358204 W
            Runtime Dynamic = 0 W

      Renaming Unit:
        Area = 0.0358588 mm^2
        Peak Dynamic = 2.82653 W
        Subthreshold Leakage = 0.0439459 W
        Subthreshold Leakage with power gating = 0.017011 W
        Gate Leakage = 0.000181197 W
        Runtime Dynamic = 0 W

          Int Front End RAT:
            Area = 0.0112201 mm^2
            Peak Dynamic = 0.479122 W
            Subthreshold Leakage = 0.00369248 W
            Subthreshold Leakage with power gating = 0.00142424 W
            Gate Leakage = 7.9817e-06 W
            Runtime Dynamic = 0 W

          FP Front End RAT:
            Area = 0.0163078 mm^2
            Peak Dynamic = 2.17289 W
            Subthreshold Leakage = 0.0292898 W
            Subthreshold Leakage with power gating = 0.0112975 W
            Gate Leakage = 0.000111844 W
            Runtime Dynamic = 0 W

          Free List:
            Area = 0.00397008 mm^2
            Peak Dynamic = 0.0238114 W
            Subthreshold Leakage = 0.000359861 W
            Subthreshold Leakage with power gating = 0.000199256 W
            Gate Leakage = 7.26665e-07 W
            Runtime Dynamic = 0 W

      Load Store Unit:
        Area = 0.744676 mm^2
        Peak Dynamic = 0.849714 W
        Subthreshold Leakage = 0.352523 W
        Subthreshold Leakage with power gating = 0.138572 W
        Gate Leakage = 0.000682391 W
        Runtime Dynamic = 0 W

          Data Cache:
            Area = 0.654623 mm^2
            Peak Dynamic = 0.849714 W
            Subthreshold Leakage = 0.327855 W
            Subthreshold Leakage with power gating = 0.129057 W
            Gate Leakage = 0.000591759 W
            Runtime Dynamic = 0 W

          LoadQ:
            Area = 0.00838428 mm^2
            Peak Dynamic = 0 W
            Subthreshold Leakage = 0.00593925 W
            Subthreshold Leakage with power gating = 0.00229085 W
            Gate Leakage = 1.30623e-05 W
            Runtime Dynamic = 0 W

          StoreQ:
            Area = 0.0100066 mm^2
            Peak Dynamic = 0 W
            Subthreshold Leakage = 0.0081244 W
            Subthreshold Leakage with power gating = 0.0031337 W
            Gate Leakage = 1.69241e-05 W
            Runtime Dynamic = 0 W

      Memory Management Unit:
        Area = 0.0193766 mm^2
        Peak Dynamic = 0.0753518 W
        Subthreshold Leakage = 0.0250943 W
        Subthreshold Leakage with power gating = 0.00967922 W
        Runtime Dynamic = 0 W

          Itlb:
            Area = 0.00619987 mm^2
            Peak Dynamic = 0 W
            Subthreshold Leakage = 0.00560668 W
            Subthreshold Leakage with power gating = 0.00216258 W
            Gate Leakage = 1.15098e-05 W
            Runtime Dynamic = 0 W

          Dtlb:
            Area = 0.00881592 mm^2
            Peak Dynamic = 0 W
            Subthreshold Leakage = 0.00888389 W
            Subthreshold Leakage with power gating = 0.00342664 W
            Gate Leakage = 1.76459e-05 W
            Runtime Dynamic = 0 W

      Execution Unit:
        Area = 1.07572 mm^2
        Peak Dynamic = 3.24954 W
        Subthreshold Leakage = 0.528804 W
        Subthreshold Leakage with power gating = 0.205323 W
        Runtime Dynamic = 0.821031 W

          Register Files:
            Area = 0.0533252 mm^2
            Peak Dynamic = 0 W
            Subthreshold Leakage = 0.00661458 W
            Subthreshold Leakage with power gating = 0.0027406 W
            Gate Leakage = 1.40736e-05 W
            Runtime Dynamic = 0 W

              Integer RF:
                Area = 0.0334906 mm^2
                Peak Dynamic = 0 W
                Subthreshold Leakage = 0.00403731 W
                Subthreshold Leakage with power gating = 0.00163574 W
                Gate Leakage = 8.8989e-06 W
                Runtime Dynamic = 0 W

              Floating Point RF:
                Area = 0.0198346 mm^2
                Peak Dynamic = 0 W
                Subthreshold Leakage = 0.00257727 W
                Subthreshold Leakage with power gating = 0.00110486 W
                Gate Leakage = 5.17467e-06 W
                Runtime Dynamic = 0 W

          Instruction Scheduler:
            Area = 0.215607 mm^2
            Peak Dynamic = 3.24954 W
            Subthreshold Leakage = 0.076717 W
            Subthreshold Leakage with power gating = 0.0307572 W
            Gate Leakage = 0.000169243 W
            Runtime Dynamic = 0 W

              Instruction Window:
                Area = 0.10145 mm^2
                Peak Dynamic = 1.39363 W
                Subthreshold Leakage = 0.0546082 W
                Subthreshold Leakage with power gating = 0.0210632 W
                Gate Leakage = 0.000124322 W
                Runtime Dynamic = 0 W

              FP Instruction Window:
                Area = 0.0325066 mm^2
                Peak Dynamic = 0.817568 W
                Subthreshold Leakage = 0.011568 W
                Subthreshold Leakage with power gating = 0.00446193 W
                Gate Leakage = 2.68689e-05 W
                Runtime Dynamic = 0 W

              ROB:
                Area = 0.0816501 mm^2
                Peak Dynamic = 1.03834 W
                Subthreshold Leakage = 0.0105408 W
                Subthreshold Leakage with power gating = 0.00523211 W
                Gate Leakage = 1.80525e-05 W
                Runtime Dynamic = 0 W

          Integer ALUs (Count: 6 ):
            Area = 0.230726 mm^2
            Peak Dynamic = 0 W
            Subthreshold Leakage = 0.187935 W
            Subthreshold Leakage with power gating = 0.0724893 W
            Gate Leakage = 0.000427106 W
            Runtime Dynamic = 0.136838 W

          Floating Point Units (FPUs) (Count: 2 ):
            Area = 0.450897 mm^2
            Peak Dynamic = 0 W
            Subthreshold Leakage = 0.091818 W
            Subthreshold Leakage with power gating = 0.0354155 W
            Gate Leakage = 0.000208668 W
            Runtime Dynamic = 0.410515 W

          Complex ALUs (Mul/Div) (Count: 1 ):
            Area = 0.115363 mm^2
            Peak Dynamic = 0 W
            Subthreshold Leakage = 0.0939676 W
            Subthreshold Leakage with power gating = 0.0362446 W
            Gate Leakage = 0.000213553 W
            Runtime Dynamic = 0.273677 W

          Results Broadcast Bus:
            Area Overhead = 0.00543891 mm^2
            Peak Dynamic = 0 W
            Subthreshold Leakage = 0.0611485 W
            Subthreshold Leakage with power gating = 0.0235859 W
            Gate Leakage = 0.000138968 W
            Runtime Dynamic = 0 W

    L2
    Area = 0.524074 mm^2
    Peak Dynamic = 0 W
    Subthreshold Leakage = 0.722154 W
    Subthreshold Leakage with power gating = 0.328576 W
    Gate Leakage = 0.000388341 W
    Runtime Dynamic = 0 W

*****************************************************************************************
Core:
      Area = 5.18282 mm^2
      Peak Dynamic = 8.07985 W
      Subthreshold Leakage = 3.06005 W
      Subthreshold Leakage with power gating = 1.24552 W
      Gate Leakage = 0.00566386 W
      Runtime Dynamic = 0.821031 W

      Instruction Fetch Unit:
        Area = 0.628731 mm^2
        Peak Dynamic = 1.07871 W
        Subthreshold Leakage = 0.510119 W
        Subthreshold Leakage with power gating = 0.207927 W
        Gate Leakage = 0.00109585 W
        Runtime Dynamic = 0 W

          Instruction Cache:
            Area = 0.375083 mm^2
            Peak Dynamic = 0 W
            Subthreshold Leakage = 0.236299 W
            Subthreshold Leakage with power gating = 0.094033 W
            Gate Leakage = 0.000609093 W
            Runtime Dynamic = 0 W

          Branch Target Buffer:
            Area = 0.0619963 mm^2
            Peak Dynamic = 0.101504 W
            Subthreshold Leakage = 0.042998 W
            Subthreshold Leakage with power gating = 0.0231987 W
            Gate Leakage = 5.00812e-05 W
            Runtime Dynamic = 0 W

          Branch Predictor:
            Area = 0.0124614 mm^2
            Peak Dynamic = 0.0364821 W
            Subthreshold Leakage = 0.0121619 W
            Subthreshold Leakage with power gating = 0.0062927 W
            Gate Leakage = 1.63868e-05 W
            Runtime Dynamic = 0 W

              Global Predictor:
                Area = 0.00400492 mm^2
                Peak Dynamic = 0.00900409 W
                Subthreshold Leakage = 0.00413566 W
                Subthreshold Leakage with power gating = 0.0021532 W
                Gate Leakage = 5.27177e-06 W
                Runtime Dynamic = 0 W

              Local Predictor:
              L1_Local Predictor:
                Area = 0.00228296 mm^2
                Peak Dynamic = 0.00769167 W
                Subthreshold Leakage = 0.00210304 W
                Subthreshold Leakage with power gating = 0.00108983 W
                Gate Leakage = 2.98326e-06 W
                Runtime Dynamic = 0 W

              L2_Local Predictor:
                Area = 0.00115846 mm^2
                Peak Dynamic = 0.00383542 W
                Subthreshold Leakage = 0.00115997 W
                Subthreshold Leakage with power gating = 0.000586761 W
                Gate Leakage = 1.82131e-06 W
                Runtime Dynamic = 0 W

              Chooser:
                Area = 0.00400492 mm^2
                Peak Dynamic = 0.00900409 W
                Subthreshold Leakage = 0.00413566 W
                Subthreshold Leakage with power gating = 0.0021532 W
                Gate Leakage = 5.27177e-06 W
                Runtime Dynamic = 0 W

              RAS:
                Area = 0.00101017 mm^2
                Peak Dynamic = 0.00694686 W
                Subthreshold Leakage = 0.000627592 W
                Subthreshold Leakage with power gating = 0.000309712 W
                Gate Leakage = 1.03873e-06 W
                Runtime Dynamic = 0 W

          Instruction Buffer:
            Area = 0.00178925 mm^2
            Peak Dynamic = 0.386362 W
            Subthreshold Leakage = 0.000878138 W
            Subthreshold Leakage with power gating = 0.000400367 W
            Gate Leakage = 1.43848e-06 W
            Runtime Dynamic = 0 W

          Instruction Decoder:
            Area = 0.17304 mm^2
            Peak Dynamic = 0.554361 W
            Subthreshold Leakage = 0.207179 W
            Subthreshold Leakage with power gating = 0.0799117 W
            Gate Leakage = 0.000358204 W
            Runtime Dynamic = 0 W

      Renaming Unit:
        Area = 0.0358588 mm^2
        Peak Dynamic = 2.82653 W
        Subthreshold Leakage = 0.0439459 W
        Subthreshold Leakage with power gating = 0.017011 W
        Gate Leakage = 0.000181197 W
        Runtime Dynamic = 0 W

          Int Front End RAT:
            Area = 0.0112201 mm^2
            Peak Dynamic = 0.479122 W
            Subthreshold Leakage = 0.00369248 W
            Subthreshold Leakage with power gating = 0.00142424 W
            Gate Leakage = 7.9817e-06 W
            Runtime Dynamic = 0 W

          FP Front End RAT:
            Area = 0.0163078 mm^2
            Peak Dynamic = 2.17289 W
            Subthreshold Leakage = 0.0292898 W
            Subthreshold Leakage with power gating = 0.0112975 W
            Gate Leakage = 0.000111844 W
            Runtime Dynamic = 0 W

          Free List:
            Area = 0.00397008 mm^2
            Peak Dynamic = 0.0238114 W
            Subthreshold Leakage = 0.000359861 W
            Subthreshold Leakage with power gating = 0.000199256 W
            Gate Leakage = 7.26665e-07 W
            Runtime Dynamic = 0 W

      Load Store Unit:
        Area = 0.744676 mm^2
        Peak Dynamic = 0.849714 W
        Subthreshold Leakage = 0.352523 W
        Subthreshold Leakage with power gating = 0.138572 W
        Gate Leakage = 0.000682391 W
        Runtime Dynamic = 0 W

          Data Cache:
            Area = 0.654623 mm^2
            Peak Dynamic = 0.849714 W
            Subthreshold Leakage = 0.327855 W
            Subthreshold Leakage with power gating = 0.129057 W
            Gate Leakage = 0.000591759 W
            Runtime Dynamic = 0 W

          LoadQ:
            Area = 0.00838428 mm^2
            Peak Dynamic = 0 W
            Subthreshold Leakage = 0.00593925 W
            Subthreshold Leakage with power gating = 0.00229085 W
            Gate Leakage = 1.30623e-05 W
            Runtime Dynamic = 0 W

          StoreQ:
            Area = 0.0100066 mm^2
            Peak Dynamic = 0 W
            Subthreshold Leakage = 0.0081244 W
            Subthreshold Leakage with power gating = 0.0031337 W
            Gate Leakage = 1.69241e-05 W
            Runtime Dynamic = 0 W

      Memory Management Unit:
        Area = 0.0193766 mm^2
        Peak Dynamic = 0.0753518 W
        Subthreshold Leakage = 0.0250943 W
        Subthreshold Leakage with power gating = 0.00967922 W
        Runtime Dynamic = 0 W

          Itlb:
            Area = 0.00619987 mm^2
            Peak Dynamic = 0 W
            Subthreshold Leakage = 0.00560668 W
            Subthreshold Leakage with power gating = 0.00216258 W
            Gate Leakage = 1.15098e-05 W
            Runtime Dynamic = 0 W

          Dtlb:
            Area = 0.00881592 mm^2
            Peak Dynamic = 0 W
            Subthreshold Leakage = 0.00888389 W
            Subthreshold Leakage with power gating = 0.00342664 W
            Gate Leakage = 1.76459e-05 W
            Runtime Dynamic = 0 W

      Execution Unit:
        Area = 1.07572 mm^2
        Peak Dynamic = 3.24954 W
        Subthreshold Leakage = 0.528804 W
        Subthreshold Leakage with power gating = 0.205323 W
        Runtime Dynamic = 0.821031 W

          Register Files:
            Area = 0.0533252 mm^2
            Peak Dynamic = 0 W
            Subthreshold Leakage = 0.00661458 W
            Subthreshold Leakage with power gating = 0.0027406 W
            Gate Leakage = 1.40736e-05 W
            Runtime Dynamic = 0 W

              Integer RF:
                Area = 0.0334906 mm^2
                Peak Dynamic = 0 W
                Subthreshold Leakage = 0.00403731 W
                Subthreshold Leakage with power gating = 0.00163574 W
                Gate Leakage = 8.8989e-06 W
                Runtime Dynamic = 0 W

              Floating Point RF:
                Area = 0.0198346 mm^2
                Peak Dynamic = 0 W
                Subthreshold Leakage = 0.00257727 W
                Subthreshold Leakage with power gating = 0.00110486 W
                Gate Leakage = 5.17467e-06 W
                Runtime Dynamic = 0 W

          Instruction Scheduler:
            Area = 0.215607 mm^2
            Peak Dynamic = 3.24954 W
            Subthreshold Leakage = 0.076717 W
            Subthreshold Leakage with power gating = 0.0307572 W
            Gate Leakage = 0.000169243 W
            Runtime Dynamic = 0 W

              Instruction Window:
                Area = 0.10145 mm^2
                Peak Dynamic = 1.39363 W
                Subthreshold Leakage = 0.0546082 W
                Subthreshold Leakage with power gating = 0.0210632 W
                Gate Leakage = 0.000124322 W
                Runtime Dynamic = 0 W

              FP Instruction Window:
                Area = 0.0325066 mm^2
                Peak Dynamic = 0.817568 W
                Subthreshold Leakage = 0.011568 W
                Subthreshold Leakage with power gating = 0.00446193 W
                Gate Leakage = 2.68689e-05 W
                Runtime Dynamic = 0 W

              ROB:
                Area = 0.0816501 mm^2
                Peak Dynamic = 1.03834 W
                Subthreshold Leakage = 0.0105408 W
                Subthreshold Leakage with power gating = 0.00523211 W
                Gate Leakage = 1.80525e-05 W
                Runtime Dynamic = 0 W

          Integer ALUs (Count: 6 ):
            Area = 0.230726 mm^2
            Peak Dynamic = 0 W
            Subthreshold Leakage = 0.187935 W
            Subthreshold Leakage with power gating = 0.0724893 W
            Gate Leakage = 0.000427106 W
            Runtime Dynamic = 0.136838 W

          Floating Point Units (FPUs) (Count: 2 ):
            Area = 0.450897 mm^2
            Peak Dynamic = 0 W
            Subthreshold Leakage = 0.091818 W
            Subthreshold Leakage with power gating = 0.0354155 W
            Gate Leakage = 0.000208668 W
            Runtime Dynamic = 0.410515 W

          Complex ALUs (Mul/Div) (Count: 1 ):
            Area = 0.115363 mm^2
            Peak Dynamic = 0 W
            Subthreshold Leakage = 0.0939676 W
            Subthreshold Leakage with power gating = 0.0362446 W
            Gate Leakage = 0.000213553 W
            Runtime Dynamic = 0.273677 W

          Results Broadcast Bus:
            Area Overhead = 0.00543891 mm^2
            Peak Dynamic = 0 W
            Subthreshold Leakage = 0.0611485 W
            Subthreshold Leakage with power gating = 0.0235859 W
            Gate Leakage = 0.000138968 W
            Runtime Dynamic = 0 W

    L2
    Area = 0.524074 mm^2
    Peak Dynamic = 0 W
    Subthreshold Leakage = 0.722154 W
    Subthreshold Leakage with power gating = 0.328576 W
    Gate Leakage = 0.000388341 W
    Runtime Dynamic = 0 W

*****************************************************************************************
      L3
      Area = 2.81071 mm^2
      Peak Dynamic = 0.040789 W
      Subthreshold Leakage = 2.21015 W
      Subthreshold Leakage with power gating = 0 W
      Gate Leakage = 0.000667432 W
      Runtime Dynamic = 0.0209193 W

*****************************************************************************************
      L3
      Area = 2.81071 mm^2
      Peak Dynamic = 0 W
      Subthreshold Leakage = 2.21015 W
      Subthreshold Leakage with power gating = 0 W
      Gate Leakage = 0.000667432 W
      Runtime Dynamic = 0 W

*****************************************************************************************
      L3
      Area = 2.81071 mm^2
      Peak Dynamic = 0 W
      Subthreshold Leakage = 2.21015 W
      Subthreshold Leakage with power gating = 0 W
      Gate Leakage = 0.000667432 W
      Runtime Dynamic = 0 W

*****************************************************************************************
      L3
      Area = 2.81071 mm^2
      Peak Dynamic = 0 W
      Subthreshold Leakage = 2.21015 W
      Subthreshold Leakage with power gating = 0 W
      Gate Leakage = 0.000667432 W
      Runtime Dynamic = 0 W

*****************************************************************************************
BUSES
      Area = 0.429445 mm^2
      Peak Dynamic = 0 W
      Subthreshold Leakage = 0.086764 W
      Subthreshold Leakage with power gating = 0.0334661 W
      Gate Leakage = 0.000279904 W
      Runtime Dynamic = 0 W

      Bus: 
        Area = 0.429445 mm^2
        Peak Dynamic = 0 W
        Subthreshold Leakage = 0.086764 W
        Subthreshold Leakage with power gating = 0.0334661 W
        Gate Leakage = 0.000279904 W
        Runtime Dynamic = 0 W

*****************************************************************************************
