McPAT (version 1.2 of June, 2014) is computing the target processor...
 
The value of homogeneous_L3s or number_of_L3s is not correct!